23
Optimised cartesian coordinates
H 14.8606507922 9.3771745049 14.5185111406
H 14.0626072591 10.0587096425 10.8969971421
H 14.0907626499 12.3579700411 13.2892989595
H 9.7309215967 14.4607972306 12.8762778106
H 10.4655184317 13.9227300112 15.9159869512
H 13.713306746 12.9677518396 9.22259231114
H 14.0350481186 13.6358337026 11.0335687463
H 11.1855940611 11.8940668533 11.3847072739
H 10.6465510874 13.5420148017 9.97152274295
H 13.316747051 12.2109387044 16.2367910594
H 13.502778919 14.9000006315 16.1290042326
H 15.6756630721 14.7661110751 16.1162717586
H 15.5819152725 13.7873788586 14.2242114095
H 16.5767557973 13.1897421038 16.0139334909
C 13.6660839843 9.86289690466 14.2797542844
C 13.975250792 11.3392416544 11.075936419
C 14.0362145219 11.0928156318 12.933388053
C 10.9416328626 13.9636427741 13.0643624379
C 11.509468051 13.8966540567 14.9605481646
C 13.1250798086 12.9106547837 10.5080177198
C 11.2935750076 13.1934346757 11.1694993529
C 13.2929979728 13.5233400579 15.8017042579
C 15.2800463579 13.6267819979 15.5785341897
