23
Optimised cartesian coordinates
H 10.3378440294 6.52325182949 10.0998338369
H 9.7826833107 6.99736322958 7.58051975106
H 9.80226966953 8.59684872427 9.24472971097
H 6.76933676292 10.05968503 8.95741065082
H 7.28036064816 9.68537739909 11.0719909226
H 9.53969164939 9.02104475795 6.41571639036
H 9.76351173464 9.4857973583 7.67552608437
H 7.78128282513 8.27413346317 7.91979636444
H 7.40629640865 9.42053203594 6.93671147336
H 9.2638240355 8.49456605525 11.2951589978
H 9.3932375089 10.3652178306 11.2201768574
H 10.9048090936 10.2720772696 11.2113194842
H 10.8395932331 9.59122007553 9.89510358924
H 11.5316562068 9.17547276789 11.1401276458
C 9.50684103256 6.86114567281 9.93374211089
C 9.72191359443 7.88816810742 7.70499924801
C 9.76432314564 7.71674130909 8.99713951514
C 7.61157068703 9.71383845154 9.08825213074
C 8.00658647028 9.66723760469 10.4073378537
C 9.13049030164 8.98132506695 7.30992537027
C 7.85640000525 9.17804151352 7.77008650637
C 9.24730293762 9.40754090985 10.9924899185
C 10.6295974664 9.47950052025 10.8372411755
