Optimised cartesian coordinates
 OpenBabel07021512193D

 23 22  0  0  0  0  0  0  0  0999 V2000
   14.7165   14.5493    9.3454 H   0  0  0  0  0  0  0  0  0  0  0  0
   11.5613   13.5764    9.9055 H   0  0  0  0  0  0  0  0  0  0  0  0
   13.6834   11.4585    8.4711 H   0  0  0  0  0  0  0  0  0  0  0  0
   11.2387    8.7917   11.9939 H   0  0  0  0  0  0  0  0  0  0  0  0
   10.3608   11.2691   10.1524 H   0  0  0  0  0  0  0  0  0  0  0  0
   14.6103   12.6841   11.2804 H   0  0  0  0  0  0  0  0  0  0  0  0
   13.3001   12.4855   12.3606 H   0  0  0  0  0  0  0  0  0  0  0  0
   14.0606    9.3961   11.9831 H   0  0  0  0  0  0  0  0  0  0  0  0
   13.6616    9.8741   10.2411 H   0  0  0  0  0  0  0  0  0  0  0  0
    9.9241   10.9724   13.4375 H   0  0  0  0  0  0  0  0  0  0  0  0
   10.1630   13.2631   12.6592 H   0  0  0  0  0  0  0  0  0  0  0  0
   10.6997   12.7497   15.9845 H   0  0  0  0  0  0  0  0  0  0  0  0
   12.1549   12.9393   14.7385 H   0  0  0  0  0  0  0  0  0  0  0  0
   10.7669   14.1188   14.6096 H   0  0  0  0  0  0  0  0  0  0  0  0
   14.4974   14.1594    8.1729 C   0  0  0  0  0  0  0  0  0  0  0  0
   12.7434   13.1715    9.9677 C   0  0  0  0  0  0  0  0  0  0  0  0
   13.6325   12.7000    8.5392 C   0  0  0  0  0  0  0  0  0  0  0  0
   11.5558    9.9763   11.7110 C   0  0  0  0  0  0  0  0  0  0  0  0
   10.5194   11.3287   11.4014 C   0  0  0  0  0  0  0  0  0  0  0  0
   13.4472   12.0584   11.1852 C   0  0  0  0  0  0  0  0  0  0  0  0
   13.3116   10.2280   11.3966 C   0  0  0  0  0  0  0  0  0  0  0  0
   10.3276   12.0816   13.0329 C   0  0  0  0  0  0  0  0  0  0  0  0
   10.8470   12.8168   14.6793 C   0  0  0  0  0  0  0  0  0  0  0  0
  2 16  1  0  0  0  0
  3 17  1  0  0  0  0
  5 19  1  0  0  0  0
  9 21  1  0  0  0  0
 11 22  1  0  0  0  0
 14 23  1  0  0  0  0
 15 17  1  0  0  0  0
 15  1  1  0  0  0  0
 16 20  1  0  0  0  0
 17 16  1  0  0  0  0
 18  4  1  0  0  0  0
 19 18  1  0  0  0  0
 19 22  1  0  0  0  0
 20  6  1  0  0  0  0
 20 21  1  0  0  0  0
 20  7  1  0  0  0  0
 21 18  1  0  0  0  0
 21  8  1  0  0  0  0
 22 10  1  0  0  0  0
 22 23  1  0  0  0  0
 23 13  1  0  0  0  0
 23 12  1  0  0  0  0
M  RAD  5  15   3  16   2  17   2  18   2  19   2
M  END
