Optimised cartesian coordinates
 OpenBabel07021512193D

 23 22  0  0  0  0  0  0  0  0999 V2000
   12.7097   12.5653    8.0710 H   0  0  0  0  0  0  0  0  0  0  0  0
    9.9848   11.7251    8.5548 H   0  0  0  0  0  0  0  0  0  0  0  0
   11.8175    9.8959    7.3159 H   0  0  0  0  0  0  0  0  0  0  0  0
    9.7061    7.5928   10.3584 H   0  0  0  0  0  0  0  0  0  0  0  0
    8.9480    9.7324    8.7680 H   0  0  0  0  0  0  0  0  0  0  0  0
   12.6180   10.9545    9.7422 H   0  0  0  0  0  0  0  0  0  0  0  0
   11.4865   10.7830   10.6751 H   0  0  0  0  0  0  0  0  0  0  0  0
   12.1432    8.1148   10.3491 H   0  0  0  0  0  0  0  0  0  0  0  0
   11.7987    8.5276    8.8446 H   0  0  0  0  0  0  0  0  0  0  0  0
    8.5708    9.4762   11.6051 H   0  0  0  0  0  0  0  0  0  0  0  0
    8.7771   11.4545   10.9330 H   0  0  0  0  0  0  0  0  0  0  0  0
    9.2407   11.0111   13.8048 H   0  0  0  0  0  0  0  0  0  0  0  0
   10.4974   11.1748   12.7287 H   0  0  0  0  0  0  0  0  0  0  0  0
    9.2987   12.1935   12.6174 H   0  0  0  0  0  0  0  0  0  0  0  0
   12.5205   12.2286    7.0585 C   0  0  0  0  0  0  0  0  0  0  0  0
   11.0057   11.3754    8.6085 C   0  0  0  0  0  0  0  0  0  0  0  0
   11.7735   10.9682    7.3748 C   0  0  0  0  0  0  0  0  0  0  0  0
    9.9800    8.6159   10.1140 C   0  0  0  0  0  0  0  0  0  0  0  0
    9.0850    9.7838    9.8467 C   0  0  0  0  0  0  0  0  0  0  0  0
   11.6135   10.4141    9.6600 C   0  0  0  0  0  0  0  0  0  0  0  0
   11.4964    8.8333    9.8425 C   0  0  0  0  0  0  0  0  0  0  0  0
    8.9193   10.4341   11.2556 C   0  0  0  0  0  0  0  0  0  0  0  0
    9.3679   11.0690   12.6775 C   0  0  0  0  0  0  0  0  0  0  0  0
  2 16  1  0  0  0  0
  3 17  1  0  0  0  0
  5 19  1  0  0  0  0
  9 21  1  0  0  0  0
 11 22  1  0  0  0  0
 14 23  1  0  0  0  0
 15 17  1  0  0  0  0
 15  1  1  0  0  0  0
 16 20  1  0  0  0  0
 17 16  1  0  0  0  0
 18  4  1  0  0  0  0
 19 18  1  0  0  0  0
 19 22  1  0  0  0  0
 20  6  1  0  0  0  0
 20 21  1  0  0  0  0
 20  7  1  0  0  0  0
 21 18  1  0  0  0  0
 21  8  1  0  0  0  0
 22 10  1  0  0  0  0
 22 23  1  0  0  0  0
 23 13  1  0  0  0  0
 23 12  1  0  0  0  0
M  RAD  5  15   3  16   2  17   2  18   2  19   2
M  END
