16
Optimised cartesian coordinates
H 13.5886134045 11.3755214782 11.3537783973
H 11.5567085631 8.97796422599 9.17852514409
H 11.3216900145 9.79249624508 12.5270815256
H 9.15258444622 11.2224113397 10.861572005
H 10.7329379301 11.5456527581 10.1588588157
H 9.81698572438 11.6897997472 7.94547319473
H 8.34543655371 8.80549522994 10.3746274669
H 9.38521690486 8.11018669092 8.09315114674
H 8.75133189874 9.5821779489 7.14452093123
H 7.31109396724 10.7072502035 8.51360988695
C 13.1983135582 10.5059960941 10.7643615428
C 10.9620661631 9.5634271507 9.85466495778
C 11.7818594998 9.80107821164 11.3819151949
C 9.77193791578 10.6659107104 9.88974380424
C 8.86124900675 9.48354642887 9.616952917
C 8.43578597216 9.83582719034 8.24364992735
