16
Optimised cartesian coordinates
H 5.22749123029 -0.771896514398 -2.9469117848
H 4.08652903277 -2.26534324073 -1.32741072803
H 5.1675389147 -1.71011171678 -1.38039207576
H 3.27407983439 -0.130997130612 -1.20113302487
H 3.34178232188 -1.08750181176 0.0249108128305
H 2.6736319104 1.59405627438 -1.29445725638
H 3.19826256363 0.110225793581 0.527646621893
H 2.60430664778 0.903981783528 0.77407912649
H 0.0355248480464 1.07594372976 -2.8472429944
H 1.72446481655 -1.68126837145 0.442702794867
C 4.8637543824 -3.17107496525 2.20908220302
C 1.83360368715 -2.08856505673 -1.47448143091
C 4.57768409475 -2.22074204111 1.07683831713
C 0.824164842284 0.425082528372 -0.33778025224
C -0.183262612828 1.82895846913 -0.828824443436
C 1.38365638665 2.99809856147 0.244283402971
