23
Optimised cartesian coordinates
H 14.49407983 9.3347022001 9.8601405806
H 12.0056892207 9.35924453654 9.27816044258
H 13.0147180129 11.4071588896 11.1880100068
H 8.56613974723 9.30374492169 12.942175461
H 9.6687210994 11.833780193 12.1439407153
H 10.5995112829 12.2345877729 9.71751815187
H 10.7505294452 11.5363940271 11.005311831
H 8.0266325903 10.8864530469 9.56934087813
H 7.76952873594 11.3959485695 10.9135538876
H 10.9095333639 9.60121639792 10.7724371015
H 9.77396335833 8.67388304268 10.8306159843
H 9.40865957268 9.19286851122 8.31321694695
H 10.5532807721 10.4043415714 7.89899319898
H 9.6695415921 11.4174812147 8.38532589312
C 14.2429483835 10.4648531913 9.86281153367
C 11.7831492878 10.4554453685 9.4787708349
C 12.9624680828 11.2427243452 10.0529390456
C 8.58813851115 9.66064578375 11.7868113678
C 9.643137723 10.7071773113 11.8499010339
C 10.3917437681 11.1660206973 9.99701107738
C 8.67666751119 10.8321184919 10.4991624349
C 9.82749461636 9.74965259715 10.4431864387
C 9.69634288954 10.3223257583 8.62933930953
