23
Optimised cartesian coordinates
H 14.2144508318 8.9677703656 13.8842104405
H 13.3647225428 9.61777046501 10.42095402
H 13.4751725508 11.821036941 12.7088742931
H 9.3077214823 13.8293042774 12.3163748719
H 10.0155490051 13.3146917763 15.2243088831
H 13.117007106 12.4012450405 8.81969633065
H 13.425134376 13.0425611463 10.5517948447
H 10.6969364005 11.3072860641 10.7529065683
H 10.1814517372 12.950779059 9.53592258665
H 12.7378166802 11.6756050513 15.5275091638
H 12.9153788473 14.2500055026 15.3345352284
H 14.9908656718 14.1239368067 15.4122176953
H 14.9012105819 13.1854417504 13.6054587446
H 15.8560507444 12.6134759964 15.3144719228
C 13.0715649767 9.43202601305 13.6559402488
C 13.3647297621 10.8460821202 10.5940408043
C 13.4229927398 10.6101600906 12.3710283496
C 10.4637687312 13.3536272028 12.5009183316
C 11.0091306422 13.289850948 14.310308241
C 12.5589692332 12.3493280355 10.0510926046
C 10.8025327931 12.6200279691 10.6837318178
C 12.7150701393 12.9340699507 15.1147715015
C 14.6141558657 13.0343294913 14.9017417531
