23
Optimised cartesian coordinates
H 14.8605622333 9.37539629131 14.515310915
H 13.9722099311 10.0549418498 10.8946337482
H 14.087680394 12.3583568019 13.2865503973
H 9.73079973149 14.4579090173 12.8762100934
H 10.4708012326 13.9199050388 15.9163229233
H 13.7132347017 12.9649379969 9.22059161841
H 14.0353677567 13.6354048347 11.0314218831
H 11.1831607824 11.8212536125 11.2416750487
H 10.644244998 13.5394508344 9.96937361332
H 13.3168083475 12.2063143718 16.2333050349
H 13.5024415222 14.8977330255 16.031559557
H 15.6722686569 14.7659339342 16.1127730451
H 15.5785383356 13.7847800118 14.2238886875
H 16.5767803237 13.1868158144 16.0105842829
C 13.6657270211 9.86075446818 14.2766648056
C 13.9722174786 11.339085853 11.0755881136
C 14.0331287734 11.0924400947 12.93334782
C 10.9393945826 13.9606102575 13.0691418921
C 11.5095456714 13.893935082 14.9607767975
C 13.1298314711 12.910661128 10.5079604502
C 11.293557011 13.1936656041 11.1693559913
C 13.2930278729 13.5219822212 15.8018065698
C 15.2784356778 13.6267990137 15.579093651
