Optimised cartesian coordinates
 OpenBabel07021512193D

 23 22  0  0  0  0  0  0  0  0999 V2000
   10.9034   10.7789    6.7590 H   0  0  0  0  0  0  0  0  0  0  0  0
    8.6225    9.9326    7.2098 H   0  0  0  0  0  0  0  0  0  0  0  0
   10.3146    8.4571    6.3084 H   0  0  0  0  0  0  0  0  0  0  0  0
    8.3204    6.4614    8.8982 H   0  0  0  0  0  0  0  0  0  0  0  0
    7.6765    8.2639    7.4065 H   0  0  0  0  0  0  0  0  0  0  0  0
   10.6726    9.3197    8.3713 H   0  0  0  0  0  0  0  0  0  0  0  0
    9.8066    9.1689    9.1586 H   0  0  0  0  0  0  0  0  0  0  0  0
   10.3824    6.9554    8.9266 H   0  0  0  0  0  0  0  0  0  0  0  0
   10.0454    7.2665    7.5653 H   0  0  0  0  0  0  0  0  0  0  0  0
    7.5381    7.9434    9.8102 H   0  0  0  0  0  0  0  0  0  0  0  0
    7.6716    9.6888    9.2978 H   0  0  0  0  0  0  0  0  0  0  0  0
    7.9783    9.2338   11.7089 H   0  0  0  0  0  0  0  0  0  0  0  0
    9.0313    9.4281   10.9268 H   0  0  0  0  0  0  0  0  0  0  0  0
    7.8780   10.2097   10.6942 H   0  0  0  0  0  0  0  0  0  0  0  0
   10.6600   10.4096    5.9694 C   0  0  0  0  0  0  0  0  0  0  0  0
    9.4143    9.5253    7.3336 C   0  0  0  0  0  0  0  0  0  0  0  0
   10.1523    9.3182    6.3607 C   0  0  0  0  0  0  0  0  0  0  0  0
    8.4981    7.2997    8.6176 C   0  0  0  0  0  0  0  0  0  0  0  0
    7.7578    8.2823    8.3834 C   0  0  0  0  0  0  0  0  0  0  0  0
    9.9026    8.7941    8.2937 C   0  0  0  0  0  0  0  0  0  0  0  0
    9.8363    7.4847    8.4241 C   0  0  0  0  0  0  0  0  0  0  0  0
    7.7094    8.8165    9.5811 C   0  0  0  0  0  0  0  0  0  0  0  0
    8.0669    9.3169   10.7464 C   0  0  0  0  0  0  0  0  0  0  0  0
  2 16  1  0  0  0  0
  3 17  1  0  0  0  0
  5 19  1  0  0  0  0
  9 21  1  0  0  0  0
 11 22  1  0  0  0  0
 14 23  1  0  0  0  0
 15 17  1  0  0  0  0
 15  1  1  0  0  0  0
 16 20  1  0  0  0  0
 17 16  1  0  0  0  0
 18  4  1  0  0  0  0
 19 18  1  0  0  0  0
 19 22  1  0  0  0  0
 20  6  1  0  0  0  0
 20 21  1  0  0  0  0
 20  7  1  0  0  0  0
 21 18  1  0  0  0  0
 21  8  1  0  0  0  0
 22 10  1  0  0  0  0
 22 23  1  0  0  0  0
 23 13  1  0  0  0  0
 23 12  1  0  0  0  0
M  RAD  5  15   3  16   2  17   2  18   2  19   2
M  END
