23
Optimised cartesian coordinates
H 12.9478453321 12.7999274611 8.02637049717
H 10.2391998886 11.7949475694 8.56169567044
H 12.248638103 10.0428056522 7.49117044825
H 9.88053028245 7.67288677297 10.5666035042
H 9.1158159132 9.8133671449 8.79523054275
H 12.6737666203 11.0671293348 9.94095816226
H 11.6453360864 10.8880710595 10.8757919423
H 12.3290661768 8.2595772015 10.6003792164
H 11.9289495661 8.62894489722 8.98375310726
H 8.9515175028 9.4327437251 11.6496392725
H 9.11006670603 11.5053949263 11.041172858
H 9.47423263365 10.9651530324 13.9043314448
H 10.724659196 11.1958261266 12.9755599965
H 9.35515139466 12.1240591735 12.699397259
C 12.6587046148 12.361439149 7.0887153999
C 11.1795227255 11.3112580282 8.70870815627
C 12.0558795695 11.0654128015 7.55327245602
C 10.0915503189 8.66837259716 10.2334058504
C 9.21243107089 9.83518134473 9.95531825389
C 11.7593602664 10.4430504201 9.84879321323
C 11.6805889797 8.88812958591 10.0036593636
C 9.15487251993 10.4695702561 11.3775296895
C 9.5793891842 11.0637668964 12.7612989443
