Optimised cartesian coordinates
 OpenBabel07021512193D

 23 22  0  0  0  0  0  0  0  0999 V2000
   14.3108   14.1473    8.8713 H   0  0  0  0  0  0  0  0  0  0  0  0
   11.3170   13.0365    9.4629 H   0  0  0  0  0  0  0  0  0  0  0  0
   13.5380   11.0999    8.2797 H   0  0  0  0  0  0  0  0  0  0  0  0
   10.9206    8.4806   11.6789 H   0  0  0  0  0  0  0  0  0  0  0  0
   10.0754   10.8464    9.7210 H   0  0  0  0  0  0  0  0  0  0  0  0
   14.0078   12.2321   10.9874 H   0  0  0  0  0  0  0  0  0  0  0  0
   12.8712   12.0342   12.0206 H   0  0  0  0  0  0  0  0  0  0  0  0
   13.6269    9.1290   11.7162 H   0  0  0  0  0  0  0  0  0  0  0  0
   13.1846    9.5373    9.9294 H   0  0  0  0  0  0  0  0  0  0  0  0
    9.8938   10.4257   12.8759 H   0  0  0  0  0  0  0  0  0  0  0  0
   10.0690   12.7165   12.2034 H   0  0  0  0  0  0  0  0  0  0  0  0
   10.4715   12.1194   15.3679 H   0  0  0  0  0  0  0  0  0  0  0  0
   11.8536   12.3743   14.3414 H   0  0  0  0  0  0  0  0  0  0  0  0
   10.3399   13.4003   14.0362 H   0  0  0  0  0  0  0  0  0  0  0  0
   13.9912   13.6626    7.8349 C   0  0  0  0  0  0  0  0  0  0  0  0
   12.3563   12.5019    9.6254 C   0  0  0  0  0  0  0  0  0  0  0  0
   13.3249   12.2302    8.3484 C   0  0  0  0  0  0  0  0  0  0  0  0
   11.1538    9.5808   11.3106 C   0  0  0  0  0  0  0  0  0  0  0  0
   10.1822   10.8705   11.0032 C   0  0  0  0  0  0  0  0  0  0  0  0
   12.9972   11.5423   10.8855 C   0  0  0  0  0  0  0  0  0  0  0  0
   12.9101    9.8237   11.0567 C   0  0  0  0  0  0  0  0  0  0  0  0
   10.1185   11.5716   12.5752 C   0  0  0  0  0  0  0  0  0  0  0  0
   10.5877   12.2284   14.1046 C   0  0  0  0  0  0  0  0  0  0  0  0
  2 16  1  0  0  0  0
  3 17  1  0  0  0  0
  5 19  1  0  0  0  0
  9 21  1  0  0  0  0
 11 22  1  0  0  0  0
 14 23  1  0  0  0  0
 15 17  1  0  0  0  0
 15  1  1  0  0  0  0
 16 20  1  0  0  0  0
 17 16  1  0  0  0  0
 18  4  1  0  0  0  0
 19 18  1  0  0  0  0
 19 22  1  0  0  0  0
 20  6  1  0  0  0  0
 20 21  1  0  0  0  0
 20  7  1  0  0  0  0
 21 18  1  0  0  0  0
 21  8  1  0  0  0  0
 22 10  1  0  0  0  0
 22 23  1  0  0  0  0
 23 13  1  0  0  0  0
 23 12  1  0  0  0  0
M  RAD  5  15   3  16   2  17   2  18   2  19   2
M  END
