23
Optimised cartesian coordinates
H 11.5849142445 11.4525666758 7.18148939221
H 9.161389374 10.553374141 7.66046454723
H 10.9593077763 8.98566821516 6.70262619054
H 8.84047446324 6.86521448108 9.4543294511
H 8.15625634339 8.78038112964 7.86941680141
H 11.3396859234 9.90216835221 8.8945415136
H 10.4195112352 9.74195831641 9.73097173788
H 11.0312697371 7.39014802239 9.48454982517
H 10.6732706644 7.72063490804 8.03809488544
H 8.0092525025 8.43982333298 10.4233614544
H 8.15111231592 10.2943007235 9.87894413614
H 8.476944988 9.81092639739 12.4407176085
H 9.5957477017 10.0173181132 11.6097115758
H 8.37039861627 10.8478424184 11.3626186002
C 11.3262093922 11.060235028 6.34253483149
C 10.0027308597 10.1205992884 7.79200203456
C 10.7868396149 9.90063250657 6.75819114486
C 9.02928186426 7.75591232377 9.15620523456
C 8.24270148448 8.79989909792 8.90739001664
C 10.52153287 9.3437819548 8.81207813815
C 10.4510532976 7.95253699792 8.95064258851
C 8.19120172836 9.36751022912 10.1798949853
C 8.57103242797 9.89915985472 11.4180043186
