23
Optimised cartesian coordinates
H 14.9922419635 14.8209686392 9.29369215462
H 11.8559156605 13.6573077119 9.91354235524
H 14.1826335929 11.6285118079 8.67398683482
H 11.4406140113 8.88439521081 12.2350145838
H 10.5551552679 11.3628461678 10.1839511548
H 14.6748876656 12.8145708087 11.5105831352
H 13.4840733632 12.6072401742 12.593022249
H 14.2757608363 9.56372097016 12.2741233032
H 13.8124679186 9.991409881 10.40224044
H 10.3649150032 10.9221243133 13.4890559998
H 10.5484982912 13.3220362304 12.7845159409
H 10.9701641021 12.6964929849 16.0997521992
H 12.4180264375 12.9635881466 15.0243326275
H 10.8322805622 14.0383843062 14.7045652473
C 14.6574474487 14.3132453304 8.20798625252
C 12.9447105243 13.0972461379 10.0837673388
C 13.9594395016 12.8125832438 8.74589442276
C 11.6849530008 10.0370630072 11.8492067741
C 10.6670254505 11.388104715 11.5272106098
C 13.6161013611 12.091953118 11.4038658258
C 13.5248925028 10.2915184679 11.5831845263
C 10.6003787073 12.1226602965 13.1739817457
C 11.0919243186 12.810677459 14.7762408829
