23
Optimised cartesian coordinates
H 10.0556821994 9.08839185828 12.1458227976
H 10.892236999 8.39926747055 9.51222293059
H 8.24915658823 9.26869956163 10.0002481343
H 13.5875125111 12.2616686136 12.2653216312
H 12.3933561353 9.82291385349 12.427377095
H 10.6205899536 11.1037832054 9.10504047104
H 11.5979908723 10.5703707588 7.94822067968
H 13.2246666903 10.13325043 10.0798765818
H 13.2708367596 12.0773724626 9.53585867073
H 9.92404890252 11.0298952047 12.2316238406
H 11.0066759935 11.764331218 10.8818053366
H 10.3121321306 13.4922795321 10.7899177395
H 10.7372116261 13.6350940847 12.7967843167
H 9.11548860808 13.6262012757 12.0969745086
C 9.04791923971 9.18719804317 11.7604602354
C 10.7053981758 9.45108058133 9.53794633827
C 9.3126682145 9.35644031477 10.2321997929
C 13.090404805 11.7251818732 11.4002906369
C 12.0860115236 10.812629557 12.0925484609
C 11.5859030016 10.6506382768 9.07279606313
C 12.9178411571 11.1435971128 9.89880005792
C 10.7328616683 11.680580609 11.9104898703
C 10.1912111486 13.2277433996 11.8770321358
