23
Optimised cartesian coordinates
H 11.1141750625 10.0450646855 13.4243304605
H 12.0387882621 9.28340088851 10.5135095549
H 9.11748886068 10.2443521471 11.0529058326
H 15.017776986 13.5523705729 13.5564081187
H 13.697919939 10.8569047854 13.7355220523
H 11.7385467908 12.2726024902 10.0634657838
H 12.8188320168 11.683041365 8.78487548807
H 14.6167368682 11.19990837 11.140916222
H 14.6677669448 13.3486748271 10.5396332677
H 10.9686856291 12.1909368052 13.5191631922
H 12.1652734665 13.0026818725 12.0272585299
H 11.3976197233 14.9125194829 11.9256985542
H 11.8674444289 15.0703671462 14.1438142447
H 10.0750137247 15.0605382521 13.3703402463
C 10.0003317913 10.1542715214 12.9984034181
C 11.8322821943 10.4459311688 10.5419406897
C 10.2929490792 10.341328769 11.3092734553
C 14.4683421529 12.9594115441 12.6003212303
C 13.358223263 11.9508010894 13.3654482989
C 12.8054717386 11.7717580954 10.0278272277
C 14.2776139104 12.3166073352 10.9407790114
C 11.8626365807 12.9101154099 13.1642256462
C 11.2639702168 14.6201374417 13.1272460448
