23
Optimised cartesian coordinates
H 10.8656498199 9.46125715671 12.9974052896
H 11.6737369096 8.88661213227 10.3822464924
H 8.74429402706 10.1558672751 10.8373129003
H 14.6706243075 13.523043292 13.1585632465
H 13.6623346391 10.7220443035 13.5538891777
H 11.3989695786 11.9476358056 9.78389236607
H 12.5789072224 11.2504475682 8.55893353128
H 14.2712228856 10.8638926472 10.9300562661
H 14.2025642883 13.2046043015 10.1963094123
H 10.8654796746 11.7534867611 13.2276038769
H 11.8401882151 12.4961965652 11.7074099395
H 11.3714347344 14.3622658591 11.4166885415
H 11.5006547576 14.7095508748 13.6123960781
H 9.76176064403 14.5240363312 12.677146543
C 9.75846209902 9.75216245379 12.6227858536
C 11.5259608941 10.0769830882 10.4016124323
C 9.93932067936 10.0884200462 10.9747688953
C 14.3174514719 12.554779226 12.399760519
C 13.1466519278 11.8212422021 13.308759115
C 12.447982701 11.3608417836 9.80232603446
C 13.8821722015 12.0657692485 10.6974280195
C 11.6602583411 12.5727833912 12.8671647605
C 11.0119961916 14.2603976387 12.6232397049
