23
Optimised cartesian coordinates
H 8.27859033898 7.2085768813 9.90278498258
H 8.89427574065 6.77075210078 7.91028304186
H 6.66231925871 7.73780363818 8.25700030496
H 11.17761852 10.3032710796 10.0255719973
H 10.4093978203 8.16917661223 10.3267727068
H 8.68492920278 9.10296061376 7.45439418367
H 9.58392931228 8.5717695758 6.52109221431
H 10.8733126747 8.27725154073 8.327661917
H 10.8210013625 10.0606508964 7.76861669512
H 8.27846070447 8.95503753228 10.0781743824
H 9.02109578292 9.52091166871 8.91993138248
H 8.66395027381 10.9426787498 8.69842936495
H 8.76240362484 11.207276857 10.3713493928
H 7.43753191926 11.0659324428 9.65877831845
C 7.43501874211 7.43021901241 9.61736065036
C 8.78168449071 7.67770140052 7.92503804369
C 7.5728157557 7.68641527328 8.36172868211
C 10.9085344548 9.56554607693 9.44743658594
C 10.0164967069 9.00666072543 10.1400069448
C 9.48417729598 8.65587945418 7.4684388834
C 10.5768931059 9.19296704644 8.15042134821
C 8.88400635509 9.57926353612 9.8035541032
C 8.39009233649 10.8650648676 9.61770644183
