23
Optimised cartesian coordinates
H 9.83082602754 8.56018504655 11.7595571668
H 10.561952442 8.04026811967 9.39346111221
H 7.91150411972 9.18864182034 9.80518786213
H 13.2734219925 12.2351344071 11.9053667468
H 12.3611599116 9.70089722702 12.2630425894
H 10.3133534283 10.8097657288 8.85209309311
H 11.3809160583 10.1789763713 7.74379700449
H 12.9120588012 9.82923620462 9.88909852644
H 12.8499391179 11.9470229395 9.22523232545
H 9.83067208656 10.6341070696 11.9678320791
H 10.7125512422 11.3060826066 10.5924185167
H 10.2884409502 12.9944310154 10.3293848709
H 10.4053543045 13.3086412676 12.315977404
H 8.83206915412 13.1407947758 11.4697992532
C 8.82908475625 8.82338507724 11.4206157723
C 10.4282503327 9.11727041312 9.41098267689
C 8.9927187099 9.12761813702 9.92955281
C 12.9538846651 11.3590859664 11.2188309458
C 11.8945898394 10.6954096114 12.0412582469
C 11.262460539 10.2788568518 8.86877117404
C 12.5600605632 10.9166483676 9.678625351
C 10.5497575467 11.3753754491 11.6417204976
C 9.96323464958 12.9022645302 11.4210263997
