23
Optimised cartesian coordinates
H 11.3830617161 9.91179321179 13.6163293511
H 12.2296291434 9.30978413857 10.8766391826
H 9.16068898073 10.6394800025 11.3533754193
H 15.369225465 14.1669977345 13.7851614963
H 14.3129220029 11.2326178418 14.1993124719
H 11.9417776538 12.5165708439 10.2497920025
H 13.1779028044 11.7861831667 8.96650179467
H 14.9508049277 11.3812208685 11.4505351359
H 14.8788768734 13.8333949825 10.6818479558
H 11.3828834686 12.3131766069 13.8574897758
H 12.4040067015 13.0912535445 12.2649056509
H 11.9129316265 15.046183281 11.9603403768
H 12.0483049841 15.4100056783 14.2606054151
H 10.226606389 15.2156571088 13.2808201879
C 10.2231507704 10.2165511421 13.2238708942
C 12.0748161747 10.5568394257 10.8969273101
C 10.4126216641 10.5688210008 11.4973769379
C 14.9992348754 13.1526258558 12.9902253057
C 13.7726829719 12.3841584975 13.9425095491
C 13.040743782 11.9018342495 10.2691034647
C 14.5432280206 12.6403296889 11.2068293538
C 12.2155087382 13.1714873622 13.4798868919
C 11.5363769627 14.9394641929 13.2243463575
