16
Optimised cartesian coordinates
H 3.7645 -0.7948 0.885
H 3.7642 -0.7955 -0.8849
H 4.4634 0.5691 -0.0005
H 2.2036 1.1946 -0.8791
H 2.2038 1.1952 0.8782
H 1.1802 -1.1087 -0.8742
H 1.1805 -1.108 0.8754
H -0.2493 1.3156 0.0006
H -1.5199 -1.4883 -0.0003
H -2.5599 1.4648 0.0004
C 2.2825 0.5398 -0.0002
C 3.6446 -0.1584 -0.0002
C 1.1057 -0.4455 0.0003
C -2.6903 0.3576 0.0
C -0.2459 0.2227 0.0003
C -1.4338 -0.403 0.0
