Molecule Name 
  Mrv1562207161514413D          

 24 19  0  0  0  0            999 V2000
   -3.3606   -0.8925    1.7240 H   0  0  0  0  0  0  0  0  0  0  0  0
   -4.8140   -0.3787    0.8340 H   0  0  0  0  0  0  0  0  0  0  0  0
   -3.2599   -0.5422   -0.0182 H   0  0  0  0  0  0  0  0  0  0  0  0
   -3.2888   -2.9865    0.3978 H   0  0  0  0  0  0  0  0  0  0  0  0
   -4.8429   -2.8230    1.2501 H   0  0  0  0  0  0  0  0  0  0  0  0
   -5.8806   -1.9236   -0.8146 H   0  0  0  0  0  0  0  0  0  0  0  0
   -5.8088   -4.0175   -2.1408 H   0  0  0  0  0  0  0  0  0  0  0  0
   -5.9095   -4.3679   -0.3986 H   0  0  0  0  0  0  0  0  0  0  0  0
    0.3180   -2.1230    1.2611 H   0  0  0  0  0  0  0  0  0  0  0  0
    2.9771   -0.3184   -0.6177 H   0  0  0  0  0  0  0  0  0  0  0  0
    1.9947   -2.5023   -1.2611 H   0  0  0  0  0  0  0  0  0  0  0  0
   -0.6644   -4.3070    0.6177 H   0  0  0  0  0  0  0  0  0  0  0  0
   -3.8888   -0.9516    0.7723 C   0  0  0  0  0  0  0  0  0  0  0  0
   -4.2141   -2.4136    0.4595 C   0  0  1  0  0  0  0  0  0  0  0  0
   -5.2807   -3.9584   -1.1891 C   0  0  0  0  0  0  0  0  0  0  0  0
   -4.9554   -2.4965   -0.8763 C   0  0  2  0  0  0  0  0  0  0  0  0
    0.3276   -4.0308    0.2605 C   0  0  0  0  0  0  0  0  0  0  0  0
    1.9851   -0.5946   -0.2605 C   0  0  0  0  0  0  0  0  0  0  0  0
    0.4601   -2.5065    0.2507 C   0  0  1  0  0  0  0  0  0  0  0  0
    1.8526   -2.1188   -0.2507 C   0  0  2  0  0  0  0  0  0  0  0  0
    6.9380   -2.3127    0.0000 C   0  0  0  0  0  0  0  0  0  0  0  0
   -4.6253    3.4690    0.0000 C   0  0  0  0  0  0  0  0  0  0  0  0
    1.7663    3.4690    0.0000 C   0  0  0  0  0  0  0  0  0  0  0  0
    0.5463    3.4690    0.0000 O   0  0  0  0  0  0  0  0  0  0  0  0
  1 13  1  0  0  0  0
  2 13  1  0  0  0  0
  3 13  1  0  0  0  0
  4 14  1  0  0  0  0
  5 14  1  0  0  0  0
  6 16  1  0  0  0  0
  7 15  1  0  0  0  0
  8 15  1  0  0  0  0
  9 19  1  0  0  0  0
 10 18  1  0  0  0  0
 11 20  1  0  0  0  0
 12 17  1  0  0  0  0
 13 14  1  0  0  0  0
 14 16  1  0  0  0  0
 15 16  1  0  0  0  0
 17 19  1  0  0  0  0
 18 20  1  0  0  0  0
 19 20  1  0  0  0  0
 23 24  2  0  0  0  0
M  END
$$$$
