16
Optimised cartesian coordinates
H 14.2110423322 12.1257432469 14.084380648
H 10.4434567186 11.7033456017 13.6194637267
H 12.6486725391 9.4678123422 13.8377623635
H 11.4656833266 11.2448643971 10.8484251797
H 10.6739319994 9.19710018198 11.6078313565
H 9.0211868454 12.1041009303 11.55795474
H 8.35820081656 10.4146940468 12.1381536326
H 9.98267013318 11.186843492 8.99229511996
H 7.87781368735 10.8964862061 9.3739604317
H 9.15658532101 9.24797591203 9.65511485399
C 12.974296865 12.0742131797 13.987876359
C 10.7006237854 10.9774749617 13.0029805402
C 12.4772674177 10.668323434 13.3482091066
C 10.5909016452 10.4553865999 11.3628935684
C 9.05082432771 10.954516414 11.4136464577
C 9.09495387222 10.5821792212 9.71358422994
