23
Optimised cartesian coordinates
H 10.5960838645 9.70751767681 12.9027276941
H 11.529626137 8.98525892805 10.2566295141
H 8.7320053417 10.0726829065 10.6132038568
H 14.3508840227 12.9355448285 13.0618430712
H 13.0051655634 10.4042839518 13.0972987542
H 11.2244215726 11.9003485979 9.81209234727
H 12.1908330232 11.2821287946 8.45107192605
H 14.0620297492 10.8588231918 10.6697542892
H 14.0144232133 12.9330034922 10.0852392268
H 10.5674151367 11.8987643625 13.2230692694
H 11.544005982 12.5417259298 11.6563880026
H 11.2263072743 14.4658435964 11.5556547745
H 11.3720605096 14.6314424826 13.7951345511
H 9.98164931817 14.7741764774 12.9069657603
C 9.62904490484 9.84652340167 12.3636442785
C 11.4183727318 10.1262851951 10.3107219793
C 9.86459919435 10.0901249201 10.8012931554
C 13.9128785551 12.3375686151 12.1017037191
C 12.8018280445 11.6280624437 13.0065337349
C 12.2589579759 11.3760730976 9.65309709581
C 13.6580764772 11.9120473701 10.5348031925
C 11.4632056985 12.5731611452 12.839700845
C 11.0677657245 14.2543325057 12.7533004779
