23
Optimised cartesian coordinates
H 12.1854964442 11.1636453283 14.8381368482
H 13.2590700575 10.3330477673 11.7951239413
H 10.041806143 11.5835853424 12.2051844353
H 16.5035166261 14.8758765528 15.0211195319
H 14.955940398 11.9649265446 15.0618935673
H 12.9080848085 13.6854008876 11.2839061994
H 14.0194579766 12.9744481138 9.71873271496
H 16.1713342116 12.4876466706 12.2702174326
H 16.1165866953 14.872954016 11.5980251108
H 12.1525274072 13.6835790169 15.2065296598
H 13.2756068793 14.4229848193 13.404846203
H 12.9102533654 16.6357201358 13.2890029907
H 13.0778695861 16.826158855 15.8644047337
H 11.4788967159 16.990302949 14.8430106243
C 11.0734016406 11.3235019119 14.2181909203
C 13.1311286415 11.6452279743 11.8573302762
C 11.3442890735 11.6036436582 12.4214871287
C 15.9998103384 14.1882039074 13.9169592769
C 14.7221022512 13.3722718102 14.9575137951
C 14.0978016723 13.0824840623 11.1010616602
C 15.7067879488 13.6988544756 12.1150236713
C 13.1826865533 14.4591353169 14.7656559718
C 12.7279305832 16.3924823816 14.6662955496
