23
Optimised cartesian coordinates
H 11.655692251 10.6782694445 14.1930004635
H 12.6825887507 9.88378482085 11.2822924656
H 9.60520587587 11.0799511971 11.6745242424
H 15.7859724249 14.2290993113 14.3680273783
H 14.3056821198 11.444712347 14.4070286296
H 12.3468637298 13.0903834577 10.793301582
H 13.4099163255 12.4103416741 9.29617911866
H 15.4682327241 11.944705511 11.7367297181
H 15.4158655346 14.2263038414 11.0937631495
H 11.6241566504 13.0886407987 14.5453761963
H 12.6984065802 13.7958985228 12.8220268028
H 12.3489380017 15.912427956 12.7112202519
H 12.5092665606 16.0945867309 15.1746480062
H 10.97981425 16.2515941251 14.1976623363
C 10.5919493953 10.8311757418 13.6000087064
C 12.560210005 11.1389137146 11.3417941772
C 10.8510591138 11.0991374122 11.8814224709
C 15.3041664106 13.5713254766 13.311874091
C 14.082010849 12.790868688 14.3071871084
C 13.4848537735 12.5136804074 10.6184068054
C 15.023884125 13.1032521071 11.5882835117
C 12.6095262684 13.8304772597 14.1236709295
C 12.174542297 15.6797657563 14.0286305257
