23
Optimised cartesian coordinates
H 9.00667128485 8.25139002529 10.96731854
H 9.80018221644 7.63747008884 8.71813508702
H 7.42220454045 8.5617804705 9.02122327825
H 12.1982514193 10.9952131042 11.1025666105
H 11.0543907289 8.84364135904 11.1327039411
H 9.5407583367 10.1152963082 8.34027849518
H 10.3622080697 9.58980947544 7.18341113714
H 11.9527252868 9.22999971305 9.06929114582
H 11.9122597313 10.9930529683 8.57245334277
H 8.98230286619 10.1139497081 11.2396088789
H 9.8124050847 10.6604670404 9.9079298022
H 9.54236118316 12.2959670569 9.82230655832
H 9.6662514332 12.4367261102 11.7258643684
H 8.48440192045 12.5580500058 10.9709208962
C 8.18468816912 8.36954489142 10.5090976367
C 9.70561682201 8.60734241581 8.76411368239
C 8.3849093152 8.57660618212 9.18109918209
C 11.8259467719 10.4869333228 10.2864481612
C 10.8815538378 9.88385307711 11.0555536746
C 10.4201142795 9.66966213297 8.20513253144
C 11.6093650057 10.1252402645 8.95458271359
C 9.74372484377 10.6871869734 10.9137457183
C 9.40760086584 12.1161826299 10.8403054063
