23
Optimised cartesian coordinates
H 8.47686709162 7.76601414145 10.3221821553
H 9.22370090959 7.18820714244 8.20530361131
H 6.98560427336 8.05814632518 8.49056308541
H 11.4807072181 10.3484358628 10.449474457
H 10.4041324508 8.32342716145 10.4778390034
H 8.97953725807 9.52027887832 7.84967387781
H 9.75266641854 9.02570303571 6.76085754084
H 11.2496237994 8.68705855346 8.53580343136
H 11.2115385706 10.3464027937 8.06819138143
H 8.45393210935 9.51901148999 10.5784554155
H 9.2352047856 10.0333807439 9.32511040207
H 8.98104581944 11.5726748771 9.24452381959
H 9.09764840772 11.7051539861 11.0361076408
H 7.98531945454 11.8193411819 10.3255726082
C 7.70323592387 7.87721872134 9.89091542281
C 9.13469818542 8.10102815606 8.24857758343
C 7.89167935548 8.07209993611 8.64103452432
C 11.1303028441 9.87005489208 9.68136297526
C 10.2414624356 9.30244995493 10.4052269879
C 9.8071663807 9.10085847809 7.72247767665
C 10.9264611818 9.52963789605 8.42784255397
C 9.17056455884 10.0585289161 10.271760676
C 8.85421257961 11.4034660046 10.2026403824
