23
Optimised cartesian coordinates
H 11.1236452672 10.1899301922 13.5113452406
H 12.1013105865 9.43357187251 10.7655194514
H 9.16769055721 10.5725352289 11.1392711889
H 15.0665117732 13.5800106437 13.7155777485
H 13.6518262379 10.9229957412 13.7460363793
H 11.7840706341 12.4917522879 10.3001829735
H 12.7965872177 11.8441489585 8.87296285961
H 14.7655816783 11.4007539101 11.1987572516
H 14.7117195999 13.5778541637 10.5854671374
H 11.0939071367 12.4915847794 13.707619455
H 12.1172034693 13.1650817676 12.2386618379
H 11.7825393313 15.1851012787 12.1409571739
H 11.9368132793 15.3608804286 14.4821741342
H 10.4791153672 15.5067296918 13.5477033772
C 10.110189658 10.3351133362 12.9799686966
C 11.986413943 10.6315209262 10.8229483611
C 10.3563823032 10.5972364101 11.3394763134
C 14.6055742538 12.9510814809 12.7048466341
C 13.4398212839 12.2072236951 13.6530631894
C 12.8700337055 11.9433274046 10.1336579493
C 14.3380949189 12.5064118405 11.0623274041
C 12.035008848 13.2006433536 13.4799057304
C 11.6189048647 14.9644607647 13.3503403486
