23
Optimised cartesian coordinates
H 10.5939478735 9.70469542115 12.8679478482
H 11.5250577014 8.98435416429 10.252875668
H 8.73113386401 10.0690811704 10.6088297037
H 14.3490588316 12.9333434702 13.0624549986
H 13.0017392742 10.4028530869 13.0914632184
H 11.2229244134 11.8969069408 9.80969807005
H 12.1872259216 11.2801418653 8.45044081867
H 14.0624587412 10.8578608667 10.6654830968
H 14.0111615237 12.9312896798 10.0813972737
H 10.5656258445 11.8967474089 13.0548756715
H 11.5401937803 12.538173112 11.6558684171
H 11.2214660299 14.4620012178 11.5628163561
H 11.3683935993 14.629409932 13.7925467945
H 9.98010987355 14.7683139922 12.9025746449
C 9.6287520552 9.84296508208 12.3618749492
C 11.4156323266 10.125258025 10.3075698678
C 9.8632212411 10.0926061048 10.7995012508
C 13.9100707179 12.3343633151 12.0998539372
C 12.7998297942 11.6259273286 13.0029173233
C 12.2571749576 11.3745975282 9.65110280884
C 13.6553284942 11.9108684195 10.5355499086
C 11.4619131886 12.5720412891 12.8380054576
C 11.0656236807 14.251867395 12.7146098558
