23
Optimised cartesian coordinates
H 10.0642504799 9.21946065009 12.2245504558
H 10.9488048163 8.53513645608 9.7402318846
H 8.29457717081 9.56562711187 10.0783882186
H 13.63160589 12.2866762967 12.4093322487
H 12.3516523105 9.88271043253 12.4368900575
H 10.6617781928 11.3020615938 9.31921316655
H 11.5778646255 10.716134772 8.02791877774
H 13.3593358042 10.3149678234 10.1322089419
H 13.3106034475 12.2847251958 9.57732741
H 10.0373445522 11.3019100385 12.4021318879
H 10.9631840913 11.9112644564 11.0730749962
H 10.6603927284 13.7389011569 10.9846755383
H 10.7999739193 13.8979394354 13.1029194548
H 9.48110437988 14.0298982926 12.2574459127
C 9.14731445244 9.35081682798 11.7437812017
C 10.8448507103 9.61899512373 9.79219137437
C 9.37006017904 9.5879757996 10.2595261883
C 13.214567182 11.7176451494 11.4948612403
C 12.1598383045 11.0446309622 12.3527714571
C 11.6443162097 10.8058676518 9.1685476684
C 12.9725620695 11.3153249985 10.0087724132
C 10.8888175292 11.9434392247 12.1961051847
C 10.5123424966 13.5392740252 12.078879363
