23
Optimised cartesian coordinates
H 8.47515829884 7.76375633692 10.2943582785
H 9.22004616113 7.18748333143 8.2023005344
H 6.98490709121 8.05526493631 8.48706376299
H 11.4792470653 10.3466747761 10.4499639989
H 10.4013914193 8.3222824695 10.4731705747
H 8.97833953075 9.51752555268 7.84775845604
H 9.74978073726 9.02411349221 6.76035265494
H 11.249966993 8.68628869339 8.53238647741
H 11.2089292189 10.3450317438 8.06511781895
H 8.45250067557 9.51739792716 10.4439005372
H 9.23215502426 10.0305384896 9.32469473364
H 8.97717282389 11.5696009743 9.25025308488
H 9.09471487943 11.7035279456 11.0340374356
H 7.98408789884 11.8146511938 10.322059716
C 7.70300164416 7.87437206566 9.88949995932
C 9.13250586131 8.10020641998 8.2460558942
C 7.89057699288 8.07408488387 8.63960100066
C 11.1280565743 9.86749065208 9.67988314976
C 10.2398638354 9.3007418629 10.4023338586
C 9.8057399661 9.09967802253 7.72088224707
C 10.9242627954 9.52869473562 8.42843992691
C 9.16953055089 10.0576330313 10.2704043661
C 8.85249894452 11.401493916 10.1716878847
