resources/2015-07-07~00-47-01/Run1/solution1.xyz
 OpenBabel07071500553D

 23 22  0  0  0  0  0  0  0  0999 V2000
    0.2923    0.0892    0.4448 H   0  0  0  0  0  0  0  0  0  0  0  0
    0.7693    0.5257    0.7803 H   0  0  0  0  0  0  0  0  0  0  0  0
    0.1827    0.8477    0.8745 H   0  0  0  0  0  0  0  0  0  0  0  0
    0.5835    0.7921    0.6464 H   0  0  0  0  0  0  0  0  0  0  0  0
    0.8227    0.5927    0.0563 H   0  0  0  0  0  0  0  0  0  0  0  0
    0.4901    0.3305    0.2265 H   0  0  0  0  0  0  0  0  0  0  0  0
    0.0868    0.5991    0.3882 H   0  0  0  0  0  0  0  0  0  0  0  0
    0.8860    0.0299    0.4171 H   0  0  0  0  0  0  0  0  0  0  0  0
    0.4352    0.0814    0.0057 H   0  0  0  0  0  0  0  0  0  0  0  0
    0.9224    0.6590    0.9818 H   0  0  0  0  0  0  0  0  0  0  0  0
    0.8049    0.9700    0.1228 H   0  0  0  0  0  0  0  0  0  0  0  0
    0.4624    0.3505    0.2187 H   0  0  0  0  0  0  0  0  0  0  0  0
    0.1846    0.4904    0.9321 H   0  0  0  0  0  0  0  0  0  0  0  0
    0.0882    0.7719    0.1679 H   0  0  0  0  0  0  0  0  0  0  0  0
    0.1168    0.6763    0.0112 C   0  0  0  0  0  0  0  0  0  0  0  0
    0.0144    0.3646    0.3328 C   0  0  0  0  0  0  0  0  0  0  0  0
    0.8416    0.0765    0.3010 C   0  0  0  0  0  0  0  0  0  0  0  0
    0.2865    0.5544    0.2180 C   0  0  0  0  0  0  0  0  0  0  0  0
    0.6517    0.0004    0.2939 C   0  0  0  0  0  0  0  0  0  0  0  0
    0.7345    0.2450    0.4794 C   0  0  0  0  0  0  0  0  0  0  0  0
    0.7227    0.0697    0.7686 C   0  0  0  0  0  0  0  0  0  0  0  0
    0.7446    0.2646    0.3916 C   0  0  0  0  0  0  0  0  0  0  0  0
    0.4709    0.6418    0.1435 C   0  0  0  0  0  0  0  0  0  0  0  0
  1 15  1  0  0  0  0
  2 16  1  0  0  0  0
  3 17  1  0  0  0  0
  4 18  1  0  0  0  0
  5 19  1  0  0  0  0
  6 20  1  0  0  0  0
  7 20  1  0  0  0  0
  8 21  1  0  0  0  0
  9 21  1  0  0  0  0
 10 22  1  0  0  0  0
 11 22  1  0  0  0  0
 12 23  1  0  0  0  0
 13 23  1  0  0  0  0
 14 23  1  0  0  0  0
 15 17  1  0  0  0  0
 16 17  2  0  0  0  0
 16 20  1  0  0  0  0
 18 19  2  0  0  0  0
 18 21  1  0  0  0  0
 19 22  1  0  0  0  0
 20 21  1  0  0  0  0
 22 23  1  0  0  0  0
M  END