23
Optimised cartesian coordinates
H 12.0747998457 12.1553231465 7.57487941204
H 9.49938920995 11.3310066679 8.44397865642
H 11.1422325609 9.51739449978 7.07264450271
H 9.33634538084 7.34322201916 10.0619212773
H 8.62712208572 9.47321373324 8.40138922727
H 12.0983137217 10.7049580692 9.49243450895
H 11.1728786715 10.5872698333 10.521865371
H 11.8168182196 7.94370644611 10.3603671555
H 11.481723796 8.29508621529 8.64965955197
H 8.29551105898 9.40866383031 11.2139425089
H 8.20176804816 11.3616941072 10.4872395071
H 8.81627461821 11.1520187501 13.2419659657
H 10.1788861641 11.1476904914 12.288598386
H 9.0382861016 12.1899130243 11.9470923182
C 11.8989370564 11.8009788793 6.63773880471
C 10.5438931749 11.0125279092 8.42109655075
C 11.1020877604 10.6001056735 7.02595694943
C 9.63485425443 8.37225253429 9.86119987046
C 8.72499069522 9.57217690084 9.52917387785
C 11.1929071913 10.1096945072 9.50593137842
C 11.1626229654 8.56406102228 9.68064400369
C 8.4588869209 10.3752957385 10.8370944684
C 9.0206418592 11.0803288536 12.1183865747
