Optimised cartesian coordinates
 OpenBabel07021512193D

 23 22  0  0  0  0  0  0  0  0999 V2000
   10.8038   10.8758    6.7775 H   0  0  0  0  0  0  0  0  0  0  0  0
    8.4995   10.1383    7.5551 H   0  0  0  0  0  0  0  0  0  0  0  0
    9.9694    8.5156    6.3282 H   0  0  0  0  0  0  0  0  0  0  0  0
    8.3536    6.5703    9.0028 H   0  0  0  0  0  0  0  0  0  0  0  0
    7.7190    8.4760    7.5170 H   0  0  0  0  0  0  0  0  0  0  0  0
   10.8248    9.5781    8.4932 H   0  0  0  0  0  0  0  0  0  0  0  0
    9.9968    9.4728    9.4143 H   0  0  0  0  0  0  0  0  0  0  0  0
   10.5729    7.1075    9.2698 H   0  0  0  0  0  0  0  0  0  0  0  0
   10.2731    7.4219    7.7392 H   0  0  0  0  0  0  0  0  0  0  0  0
    7.4223    8.4183   10.0335 H   0  0  0  0  0  0  0  0  0  0  0  0
    7.3384   10.1657    9.3833 H   0  0  0  0  0  0  0  0  0  0  0  0
    7.8882    9.9781   11.8481 H   0  0  0  0  0  0  0  0  0  0  0  0
    9.1074    9.9742   10.9951 H   0  0  0  0  0  0  0  0  0  0  0  0
    8.0869   10.9068   10.6895 H   0  0  0  0  0  0  0  0  0  0  0  0
   10.6464   10.5588    5.9390 C   0  0  0  0  0  0  0  0  0  0  0  0
    9.4340    9.8533    7.5347 C   0  0  0  0  0  0  0  0  0  0  0  0
    9.9334    9.4843    6.2864 C   0  0  0  0  0  0  0  0  0  0  0  0
    8.6207    7.4910    8.8232 C   0  0  0  0  0  0  0  0  0  0  0  0
    7.8066    8.5646    8.5261 C   0  0  0  0  0  0  0  0  0  0  0  0
   10.0147    9.0455    8.5053 C   0  0  0  0  0  0  0  0  0  0  0  0
    9.9876    7.6626    8.6616 C   0  0  0  0  0  0  0  0  0  0  0  0
    7.5685    9.2832    9.6963 C   0  0  0  0  0  0  0  0  0  0  0  0
    8.0711    9.9140   10.8428 C   0  0  0  0  0  0  0  0  0  0  0  0
  5 19  1  0  0  0  0
  6 20  1  0  0  0  0
  9 21  1  0  0  0  0
 11 22  1  0  0  0  0
 14 23  1  0  0  0  0
 15 17  1  0  0  0  0
 15  1  1  0  0  0  0
 16  2  1  0  0  0  0
 16 20  1  0  0  0  0
 17  3  1  0  0  0  0
 17 16  1  0  0  0  0
 18  4  1  0  0  0  0
 19 18  1  0  0  0  0
 19 22  1  0  0  0  0
 20 21  1  0  0  0  0
 20  7  1  0  0  0  0
 21 18  1  0  0  0  0
 21  8  1  0  0  0  0
 22 10  1  0  0  0  0
 22 23  1  0  0  0  0
 23 13  1  0  0  0  0
 23 12  1  0  0  0  0
M  RAD  5  15   3  16   2  17   2  18   2  19   2
M  END
