23
Optimised cartesian coordinates
H 10.1682525017 10.2360615971 6.37884582067
H 7.99948565048 9.54190035195 7.11071886857
H 9.38293268283 8.01464799981 5.95591116018
H 7.86218558387 6.18376591087 8.47319686506
H 7.26494491429 7.97744314378 7.07485408612
H 10.1880536604 9.014701532 7.99362906017
H 9.40873993393 8.91559564912 8.86051820714
H 9.95100481649 6.68943700725 8.72451970994
H 9.66882003875 6.98533576024 7.28392383323
H 6.98569352335 7.92308533079 9.44332000753
H 6.90675204056 9.56774240603 8.83135958491
H 7.42423125744 9.39117368426 11.1511292343
H 8.57169361191 9.38752883488 10.3482933777
H 7.61118829609 10.2651899152 10.0607093206
C 10.0201575212 9.93766642464 5.58967478291
C 8.87906793679 9.27370771302 7.09144972695
C 9.34912653507 8.92640477765 5.91659532584
C 8.11356147742 7.05031792361 8.30416831196
C 7.34736058545 8.06078054807 8.02456747608
C 9.42560605585 8.51342695344 8.00499484499
C 9.40010354979 7.21184086087 8.15212126627
C 7.12327319655 8.73709114825 9.12597428921
C 7.5963299867 9.33080324512 10.2049571155
