Optimised cartesian coordinates
 OpenBabel07021512193D

 23 22  0  0  0  0  0  0  0  0999 V2000
   12.7103   12.7951    7.9736 H   0  0  0  0  0  0  0  0  0  0  0  0
    9.9994   11.9274    8.8884 H   0  0  0  0  0  0  0  0  0  0  0  0
   11.7287   10.0183    7.4449 H   0  0  0  0  0  0  0  0  0  0  0  0
    9.8277    7.7297   10.5915 H   0  0  0  0  0  0  0  0  0  0  0  0
    9.0812    9.9718    8.8436 H   0  0  0  0  0  0  0  0  0  0  0  0
   12.7351   11.2684    9.9920 H   0  0  0  0  0  0  0  0  0  0  0  0
   11.7609   11.1445   11.0756 H   0  0  0  0  0  0  0  0  0  0  0  0
   12.4388    8.3618   10.9056 H   0  0  0  0  0  0  0  0  0  0  0  0
   12.0860    8.7317    9.1049 H   0  0  0  0  0  0  0  0  0  0  0  0
    8.7321    9.9039   11.8042 H   0  0  0  0  0  0  0  0  0  0  0  0
    8.6334   11.9597   11.0392 H   0  0  0  0  0  0  0  0  0  0  0  0
    9.2803   11.7390   13.9389 H   0  0  0  0  0  0  0  0  0  0  0  0
   10.7146   11.7344   12.9354 H   0  0  0  0  0  0  0  0  0  0  0  0
    9.5140   12.8315   12.5759 H   0  0  0  0  0  0  0  0  0  0  0  0
   12.5252   12.4221    6.9871 C   0  0  0  0  0  0  0  0  0  0  0  0
   11.0988   11.5921    8.8643 C   0  0  0  0  0  0  0  0  0  0  0  0
   11.6864   11.1580    7.3957 C   0  0  0  0  0  0  0  0  0  0  0  0
   10.1420    8.8129   10.3802 C   0  0  0  0  0  0  0  0  0  0  0  0
    9.1842   10.0760   10.0307 C   0  0  0  0  0  0  0  0  0  0  0  0
   11.7820   10.6418   10.0062 C   0  0  0  0  0  0  0  0  0  0  0  0
   11.7501    9.0148   10.1902 C   0  0  0  0  0  0  0  0  0  0  0  0
    8.9041   10.9214   11.4075 C   0  0  0  0  0  0  0  0  0  0  0  0
    9.4954   11.6635   12.7562 C   0  0  0  0  0  0  0  0  0  0  0  0
  5 19  1  0  0  0  0
  6 20  1  0  0  0  0
  9 21  1  0  0  0  0
 11 22  1  0  0  0  0
 14 23  1  0  0  0  0
 15 17  1  0  0  0  0
 15  1  1  0  0  0  0
 16  2  1  0  0  0  0
 16 20  1  0  0  0  0
 17  3  1  0  0  0  0
 17 16  1  0  0  0  0
 18  4  1  0  0  0  0
 19 18  1  0  0  0  0
 19 22  1  0  0  0  0
 20 21  1  0  0  0  0
 20  7  1  0  0  0  0
 21 18  1  0  0  0  0
 21  8  1  0  0  0  0
 22 10  1  0  0  0  0
 22 23  1  0  0  0  0
 23 13  1  0  0  0  0
 23 12  1  0  0  0  0
M  RAD  5  15   3  16   2  17   2  18   2  19   2
M  END
