23
Optimised cartesian coordinates
H 10.3377824231 6.52201481135 10.0976075931
H 9.71979821297 6.99474215637 7.57887565091
H 9.80012549149 8.59711777525 9.24281766768
H 6.76925198713 10.0576758381 8.95736354322
H 7.28403564004 9.68341220091 11.0722246423
H 9.53964153165 9.01908730219 6.41432460411
H 9.76373409164 9.48549901546 7.67403261435
H 7.77959010947 8.22348077389 7.77172242089
H 7.40469217252 9.41874840653 6.93521642666
H 9.26386667654 8.49134912818 11.2927339373
H 9.39300279807 10.3636403656 11.152389257
H 10.9024477613 10.2719540412 11.2088855966
H 10.8372440596 9.58941218213 9.89487908698
H 11.5316732686 9.1734370883 11.0686188939
C 9.50659271035 6.85965528221 9.93159290822
C 9.71980346336 7.8880597238 7.70475694861
C 9.76217653801 7.71648006591 8.99711152696
C 7.61001362267 9.7117288748 9.09157696842
C 8.00664046709 9.66534614397 10.4074969026
C 9.13379580598 8.98132948034 7.3098855306
C 7.85638748592 9.17820215936 7.76998677658
C 9.24732373765 9.40659632779 10.992561092
C 10.6284769933 9.47951235732 10.8376303659
