23
Optimised cartesian coordinates
H 15.4240028988 9.80954400749 15.0943245408
H 14.576270377 10.2673999717 10.9051738891
H 14.6627657051 12.4450331405 13.3850216655
H 10.0189085732 14.8866871033 13.2902627334
H 10.6177174835 13.817587315 16.2140363906
H 13.7856328465 13.1347621987 9.45406781731
H 14.1884896288 13.7997577829 11.2013349597
H 11.4200896789 11.9348965819 11.7414749938
H 10.7422739131 13.5594834238 10.4662008497
H 13.6200919925 12.4503199355 16.5892995873
H 13.5950211124 15.0011448783 16.6549826804
H 15.6634573544 15.2458155283 16.2056373685
H 15.6971237432 14.1946877018 14.4751023206
H 16.788959418 13.662967363 16.0853149657
C 14.2962210369 10.2364672852 14.6854038323
C 14.2780448128 11.4752249772 11.2609001809
C 14.4951609899 11.1698024687 13.0916508494
C 11.1732204067 14.1532329853 13.3765036479
C 11.6377055069 13.9084205508 15.3121398107
C 13.3078258767 12.9840501235 10.757921229
C 11.5229793583 13.3005106187 11.5973964572
C 13.4982316633 13.7711463085 16.0629368884
C 15.4697430731 13.9991237881 15.8144142779
