23
Optimised cartesian coordinates
H 10.729741147 6.82403061391 10.5003996806
H 10.1400141753 7.14253911077 7.58620792284
H 10.2001848383 8.65741435859 9.31131941945
H 6.96967552919 10.3559562458 9.24540016235
H 7.38623824939 9.61223465392 11.279329663
H 9.59000545845 9.13722587735 6.57674282943
H 9.87025365478 9.59983150113 7.79223301542
H 7.94441021139 8.30253675263 8.16798260436
H 7.4728862004 9.43268412089 7.28083537372
H 9.47484660349 8.66109212903 11.5403823216
H 9.45740599124 10.4355790458 11.5860749081
H 10.8963181596 10.6057847154 11.273486865
H 10.9197382561 9.87456535774 10.069636397
H 11.6792761169 9.50467294819 11.189784324
C 9.94519724304 7.12102072017 10.2159331007
C 9.93255291324 7.98276520156 7.83366969106
C 10.0835902538 7.7702973695 9.10723537346
C 7.77267506555 9.84572729413 9.30539384204
C 8.09579513527 9.67542299185 10.6519233465
C 9.25761800118 9.03238269459 7.48377128972
C 8.01598564054 9.25252912606 8.06775405721
C 9.39007420054 9.57992786681 11.1742169658
C 10.7615603987 9.73852089606 11.0013316716
