23
Optimised cartesian coordinates
H 14.0827852554 8.95654018076 13.7817745808
H 13.308768605 9.37458258288 9.95689789873
H 13.3877426003 11.3628563456 12.221106738
H 9.14769913206 13.5921925726 12.1345877131
H 9.69443770232 12.6160579833 14.8041201828
H 12.5868821642 11.992608964 8.63197496363
H 12.9547079219 12.5997788452 10.2273058327
H 10.4270384024 10.8970794878 10.7204771682
H 9.80816313803 12.3803979087 9.55609642801
H 12.4357361671 11.3676834194 15.1467517971
H 12.4128453635 13.6966974976 15.2067233168
H 14.3014175844 13.9200924389 14.7964515104
H 14.3321564612 12.960367032 13.216397771
H 15.3290499034 12.4748832445 14.6865919252
C 13.0530713815 9.34633969522 13.4084121947
C 13.0364756986 10.4773793271 10.2816914695
C 13.2347122081 10.1985152975 11.9532464277
C 10.2016360235 12.9225170735 12.2133294177
C 10.625731115 12.6989926768 13.9806493923
C 12.1506236266 11.8550022867 9.82244981776
C 10.5209811532 12.143944478 10.5889272001
C 12.3244723882 12.5736553252 14.6661597677
C 14.1245480233 12.7818086761 14.439247819
