23
Optimised cartesian coordinates
H 8.69465162908 15.1339821371 8.97639896023
H 11.204433499 14.0820051524 10.7074334681
H 11.4026003368 14.4037290826 7.80757926808
H 13.1290750767 9.66385436616 9.1924779714
H 12.5377006342 12.0563027079 10.6649618609
H 9.7843656187 11.6971631695 11.2840954097
H 8.76100259756 12.2483528253 10.2096026151
H 10.6215025698 11.1539229411 8.29753186485
H 10.1176152841 9.62432617247 9.30652788806
H 10.4980953568 9.97443329093 11.7015081187
H 12.0121592731 9.96634132055 12.6166380933
H 11.6270536712 7.91403392786 9.80511350741
H 11.2726969548 7.05812912743 11.2905358211
H 12.843909326 8.22531424308 11.2211436975
C 9.84024103391 15.1295865923 8.92015182691
C 10.6169157089 13.383332016 10.0365413201
C 11.1427710903 14.3198173384 8.85799133598
C 12.0632051741 10.0706837217 9.29340416987
C 12.3900437283 10.8586987308 10.5481193393
C 9.86831038472 11.9553401451 10.1183040441
C 10.5463775982 10.7115122993 9.32711723286
C 11.6701743562 9.82963646471 11.4802994163
C 11.7030454239 8.17641071547 10.9632838878
