23
Optimised cartesian coordinates
H 9.56411679199 16.6473803509 9.87403885625
H 12.3248768489 15.4902056677 11.7781768149
H 12.5428603704 15.8441019908 8.58833719488
H 14.4419825844 10.6302398028 10.1117257685
H 13.7914706976 13.2619329787 11.731458047
H 10.7628021806 12.8668794865 12.4125049507
H 9.63710285732 13.4731881078 11.2305628766
H 11.6836528268 12.2693152352 9.12728505133
H 11.1293768125 10.5867587897 10.2371806769
H 11.5479048925 10.97187662 12.8716589306
H 13.2133752004 10.9629754526 13.8783019026
H 12.7897590384 8.70543732064 10.7856248581
H 12.3999666502 7.76394204017 12.4195894032
H 14.1283002586 9.04784566739 12.3432580673
C 10.8242651373 16.6425452515 9.8121670096
C 11.6786072798 14.7216652176 11.0401954521
C 12.2570481993 15.7517990722 9.74379046958
C 13.2695256916 11.0777520939 10.2227445869
C 13.6290481011 11.9445686039 11.6029312733
C 10.8551414232 13.1508741596 11.1301344485
C 11.6010153581 11.7826635292 10.2598289561
C 12.8371917918 10.8126001112 12.6283293579
C 12.8733499662 8.99405178701 12.0596122766
