23
Optimised cartesian coordinates
H 9.12938421054 15.890681244 9.42521890824
H 11.7646551739 14.7861054101 11.2428051415
H 11.9727303536 15.1239155367 8.19795823148
H 13.7855288306 10.1470470845 9.65210186997
H 13.1645856659 12.6591178433 11.1982099539
H 10.2735838996 12.282021328 11.8483001802
H 9.19905272744 12.8607704666 10.7200827458
H 11.1525776983 11.7116190881 8.71240845809
H 10.6234960483 10.1055424811 9.77185428246
H 11.0230001246 10.4731549555 12.2865835247
H 12.6127672367 10.4646583866 13.2474699979
H 12.2084063548 8.30973562425 10.2953691828
H 11.8363318025 7.4110355838 11.8550626121
H 13.4861047923 8.63657995524 11.7822008824
C 10.3322530856 15.8860659219 9.36615941825
C 11.1477614944 14.0524986168 10.5383683861
C 11.6999096448 15.0358082053 9.30089090278
C 12.6663654329 10.5742179078 9.75807437836
C 13.0095459147 11.4016336673 11.0755253063
C 10.361725904 12.5531071523 10.6242192463
C 11.0736964782 11.2470879142 9.7934730945
C 12.253683074 10.3211182879 12.0543143871
C 12.288197695 8.58523125124 11.5114480822
