23
Optimised cartesian coordinates
H 8.25991904763 14.3772830303 8.52757901222
H 10.644211824 13.3779048948 10.1720617947
H 10.8324703199 13.6835426284 7.41720030467
H 12.4726213229 9.18066164786 8.73285407283
H 11.9108156025 11.4534875725 10.1317137678
H 9.29514733776 11.1123050111 10.7198906393
H 8.32295246768 11.635935184 9.69912248433
H 10.0904274413 10.596226794 7.88265527161
H 9.61173451986 9.14310986384 8.84120149365
H 9.97319058896 9.47571162638 11.1164327128
H 11.4115513094 9.46802425453 11.9858061886
H 11.0457009877 7.51833223146 9.31485783204
H 10.709062107 6.70522267106 10.72600903
H 12.2017138597 7.81404853093 10.6600865126
C 9.34822898222 14.3731072626 8.47414423556
C 10.0860699235 12.7141654152 9.53471425409
C 10.5856325358 13.6038264714 8.41509176918
C 11.4600449154 9.56714953563 8.82873396138
C 11.7705415418 10.3157637942 10.0207133724
C 9.37489486549 11.3575731378 9.61238884187
C 10.0190587183 10.1759366843 8.86076137121
C 11.0866656384 9.33815464148 10.9062844455
C 11.1178931527 7.76759017969 10.4151196934
