23
Optimised cartesian coordinates
H 7.39045388472 12.8638848166 7.62993911619
H 9.52376847412 11.9697043796 9.10131844791
H 9.69221028624 12.2431697202 6.63644237786
H 11.1597138152 8.21427621124 7.81360627569
H 10.6570455391 10.2478573018 9.06521758174
H 8.31671077589 9.9425886941 9.59148109828
H 7.44685220793 10.4110999015 8.67816222282
H 9.02827718432 9.48083449991 7.05290208512
H 8.59997299145 8.1806772466 7.91054870485
H 8.92338105328 8.47826829729 9.94628190091
H 10.2103353821 8.47139012247 10.7241423793
H 9.88299562056 6.72692883868 8.3343464813
H 9.58179241155 5.99940975831 9.59695544789
H 10.9173229271 6.99151710662 9.53797214288
C 8.36420487883 12.8601486034 7.58212905287
C 9.02437835258 11.3758322136 8.53106012208
C 9.47135542673 12.1718447376 7.52929263559
C 10.253724398 8.56008116346 7.89939354439
C 10.531537169 9.22989392116 8.96590143845
C 8.38806382701 10.1620391233 8.60055843746
C 8.96442095851 9.10478545436 7.92804964793
C 9.91964820276 8.355190995 9.75825450386
C 9.94758861028 6.94994910815 9.31879130466
