23
Optimised cartesian coordinates
H 11.6550886438 10.6771811157 14.1578802708
H 12.6803853137 9.88319305726 11.280845912
H 9.60477338869 11.0786238746 11.6719293752
H 15.7867332763 14.2290059283 14.3690157017
H 14.3039449526 11.4440436636 14.4033571739
H 12.3460748 13.0887873838 10.79262022
H 13.4086176275 12.4104936748 9.29535813391
H 15.4685697084 11.9441418446 11.7346409299
H 15.4144674703 14.2263716009 11.0920086421
H 11.623061341 13.0880442606 14.543283603
H 12.696959268 13.7946857376 12.8214130846
H 12.3463743083 15.9108752882 12.7173300858
H 12.508207513 16.0943041893 15.1740121754
H 10.9794649726 16.2503474278 14.1962622401
C 10.5913669473 10.8298370139 13.5999432048
C 12.5591608022 11.1391971106 11.3406507921
C 10.8508725933 11.1042698783 11.8802972628
C 15.3033477493 13.5699469968 13.3114268155
C 14.0815193601 12.790109982 14.3054149483
C 13.4842053505 12.5137194619 10.6177870349
C 15.022795831 13.1029136079 11.5886091322
C 12.6095015431 13.8301824017 14.122611561
C 12.1740091013 15.6791034065 14.0277342196
