23
Optimised cartesian coordinates
H 10.5955351307 9.70652828701 12.8708002462
H 11.5276230125 8.98472096115 10.2553144655
H 8.73161217154 10.0714762496 10.6108448865
H 14.3515757057 12.9354599348 13.062741547
H 13.0035863206 10.4036760578 13.0939610672
H 11.2237043637 11.8988976217 9.81147292731
H 12.1896523887 11.2822669771 8.45032557629
H 14.0623360986 10.8583107678 10.6678553908
H 14.0131522458 12.9330650918 10.08364422
H 10.5664194009 11.8982220551 13.2211669118
H 11.5426902437 12.5406233978 11.6558300769
H 11.2239766439 14.4644320801 11.5612091689
H 11.3710977391 14.6311856266 13.7945565231
H 9.98133179326 14.7730431162 12.9056929456
C 9.62851540668 9.84530637628 12.3635847316
C 11.4174189111 10.1265428278 10.3096825383
C 9.86442963024 10.0947907985 10.8002702389
C 13.9121343176 12.3363154517 12.101297105
C 12.8013812365 11.6273727109 13.0049226802
C 12.2583685005 11.3761086017 9.65253366811
C 13.6570871191 11.9117396435 10.5350992111
C 11.463183221 12.5728930924 12.8387377828
C 11.0672810012 14.2537303696 12.7524856542
