23
Optimised cartesian coordinates
H 10.0657583742 9.22120187266 12.2272602339
H 10.9512418618 8.53548491309 9.74254874219
H 8.29503156296 9.56790243715 10.0803026422
H 13.6339969204 12.2886869381 12.4096044697
H 12.3534070045 9.88349225489 12.4392630138
H 10.6625191455 11.3039527406 9.32089928094
H 11.5801697692 10.7181536282 8.02780929747
H 13.3592192936 10.3153952294 10.1344626212
H 13.3124946335 12.2864118372 9.57946200905
H 10.0380984309 11.3033109523 12.5601085662
H 10.9655557315 11.9135922279 11.0730385731
H 10.6627778117 13.7412104761 10.9831487105
H 10.8025428522 13.8996263453 13.104828697
H 9.4822652036 14.0343909604 12.2604082983
C 9.14708963634 9.35304105747 11.7454054951
C 10.8465479655 9.62021568644 9.79419841139
C 9.37120814872 9.59005125856 10.2602567269
C 13.2165276017 11.7194996791 11.4962322498
C 12.1613121747 11.0460040753 12.3546765462
C 11.6454500755 10.8073031716 9.16990698471
C 12.9742327632 11.3161526613 10.0083442506
C 10.89002406 11.9442484378 12.1968008936
C 10.5139169512 13.5410438511 12.1148613715
