23
Optimised cartesian coordinates
H 12.1848654004 11.1625075301 14.8014202832
H 13.2567664643 10.3324291053 11.7936116353
H 10.0413539973 11.5821976871 12.2024716195
H 16.5043120616 14.875778925 15.0221527791
H 14.9541242687 11.9642274664 15.0580552272
H 12.9072600182 13.6837322649 11.2831938664
H 14.0181002469 12.9746070237 9.71787441273
H 16.1716865133 12.487057383 12.2680336994
H 16.1151250826 14.8730248555 11.5961908531
H 12.151382311 13.6829553633 15.2043419486
H 13.2740937802 14.4217169075 13.4042045885
H 12.9075731405 16.6340968922 13.2953905443
H 13.0767624 16.8258634706 15.8637400016
H 11.4785315623 16.9889995836 14.8415468874
C 11.0727927177 11.3221023327 14.2181224414
C 13.1300317478 11.645524252 11.856134919
C 11.3440940748 11.6090094183 12.4203107747
C 15.9989544652 14.1867627694 13.9164916708
C 14.7215884219 13.3714786175 14.9556610823
C 14.0971237756 13.0825248919 11.1004137183
C 15.705650187 13.69850059 12.1153640928
C 13.1826607042 14.4588270563 14.7645484502
C 12.7273731514 16.391789925 14.6653585023
