23
Optimised cartesian coordinates
H 9.9606279147 11.3860966534 14.6909399375
H 10.5767165054 8.66032001405 9.88419735038
H 11.6614114996 9.02042317905 13.0784956118
H 14.0700598202 12.9560679114 10.3966261222
H 11.011773952 14.4109668515 10.3289752041
H 12.158323206 11.2221852672 11.6181666513
H 9.76748795937 11.7105860162 11.0868000964
H 11.8639139266 10.3524076439 8.502130851
H 11.4503206349 12.2341679561 8.33757965821
H 10.7035216289 13.5989979748 13.5109818568
H 12.4323647038 14.8376447421 13.3947221461
H 14.2132421539 13.0791703945 14.1840802568
H 13.082552122 11.1666726229 14.2897624362
H 13.1223651224 12.8060284924 15.6530305284
C 10.1227678708 10.1219301003 14.434044018
C 10.5940336441 9.4523606247 10.9385939769
C 10.4335146838 9.36383673992 12.8108747884
C 12.7914868865 12.7631319779 10.1242384568
C 11.9389742592 13.9421601012 11.1426974826
C 10.9804001325 11.2088591792 11.0448242996
C 11.717045394 11.4241574291 9.34810145525
C 12.0056429794 13.6283842322 13.1237295366
C 13.0237812431 12.5561564972 14.2883173231
