23
Optimised cartesian coordinates
H 7.3622032413 8.41581056989 10.8585208234
H 7.81757306923 6.40110609734 7.30571108507
H 8.61930415189 6.66726930625 9.66671414788
H 10.3996094323 9.57622410843 7.68446278596
H 8.1391372689 10.6515841946 7.63445993348
H 8.98658671749 8.29465867578 8.58734056835
H 7.21944762214 8.65565053373 8.19459137559
H 8.76897985877 7.65177956288 6.28418367248
H 8.46328046925 9.04264588057 6.16255887781
H 7.91129859529 10.0514332857 9.98637789417
H 9.1891391289 10.9669548094 9.90044680366
H 10.5054398529 9.66721290026 10.4838854072
H 9.66971243797 8.25362759086 10.5619983224
H 9.69913943829 9.46532540742 11.5696312601
C 7.48204581752 7.48142659587 10.6686412307
C 7.83037269344 6.98652741826 8.08504772204
C 7.71172824455 6.92109672081 9.46890745227
C 9.45457726392 9.43361928804 7.48313277238
C 8.82445923504 10.3050748574 8.23590683496
C 8.11594792405 8.28480895853 8.16356578664
C 8.66042485646 8.4439424476 6.90946629301
C 8.87373611524 10.073153563 9.70014791835
C 9.6262730927 9.280637411 10.5609301953
