Optimised cartesian coordinates
 OpenBabel07021512193D

 23 22  0  0  0  0  0  0  0  0999 V2000
    6.9291    7.9208   10.2198 H   0  0  0  0  0  0  0  0  0  0  0  0
    7.3577    6.0246    6.8760 H   0  0  0  0  0  0  0  0  0  0  0  0
    8.1123    6.2751    9.0981 H   0  0  0  0  0  0  0  0  0  0  0  0
    9.7879    9.0129    7.2324 H   0  0  0  0  0  0  0  0  0  0  0  0
    7.6604   10.0250    7.1854 H   0  0  0  0  0  0  0  0  0  0  0  0
    8.4580    7.8067    8.0822 H   0  0  0  0  0  0  0  0  0  0  0  0
    6.7948    8.1465    7.7126 H   0  0  0  0  0  0  0  0  0  0  0  0
    8.2532    7.2017    5.9145 H   0  0  0  0  0  0  0  0  0  0  0  0
    7.9654    8.5107    5.8001 H   0  0  0  0  0  0  0  0  0  0  0  0
    7.4459    9.4602    9.3989 H   0  0  0  0  0  0  0  0  0  0  0  0
    8.6486   10.3218    9.3181 H   0  0  0  0  0  0  0  0  0  0  0  0
    9.8875    9.0986    9.8672 H   0  0  0  0  0  0  0  0  0  0  0  0
    9.1009    7.7681    9.9407 H   0  0  0  0  0  0  0  0  0  0  0  0
    9.1286    8.9085   10.8891 H   0  0  0  0  0  0  0  0  0  0  0  0
    7.0419    7.0413   10.0411 C   0  0  0  0  0  0  0  0  0  0  0  0
    7.3698    6.5756    7.6095 C   0  0  0  0  0  0  0  0  0  0  0  0
    7.2581    6.5140    8.9119 C   0  0  0  0  0  0  0  0  0  0  0  0
    8.8984    8.8787    7.0429 C   0  0  0  0  0  0  0  0  0  0  0  0
    8.3054    9.6989    7.7514 C   0  0  0  0  0  0  0  0  0  0  0  0
    7.6385    7.7975    7.6834 C   0  0  0  0  0  0  0  0  0  0  0  0
    8.1510    7.9472    6.5030 C   0  0  0  0  0  0  0  0  0  0  0  0
    8.3518    9.4806    9.1296 C   0  0  0  0  0  0  0  0  0  0  0  0
    9.0600    8.7347    9.9397 C   0  0  0  0  0  0  0  0  0  0  0  0
  2 16  1  0  0  0  0
  5 19  1  0  0  0  0
  8 21  1  0  0  0  0
  9 21  1  0  0  0  0
 12 23  1  0  0  0  0
 15  1  1  0  0  0  0
 16 20  1  0  0  0  0
 16 17  1  0  0  0  0
 17  3  1  0  0  0  0
 17 15  1  0  0  0  0
 18  4  1  0  0  0  0
 18 19  1  0  0  0  0
 19 22  1  0  0  0  0
 20  7  1  0  0  0  0
 20  6  1  0  0  0  0
 21 18  1  0  0  0  0
 21 20  1  0  0  0  0
 22 11  1  0  0  0  0
 22 10  1  0  0  0  0
 22 23  1  0  0  0  0
 23 13  1  0  0  0  0
 23 14  1  0  0  0  0
M  RAD  5  15   3  16   2  17   2  18   2  19   2
M  END
