23
Optimised cartesian coordinates
H 8.661415578 9.90095361163 12.7747303804
H 9.19714478733 7.53071305569 8.59495421773
H 10.1403578258 7.84384624265 11.3726048799
H 12.2348346263 11.2661460099 9.04054445407
H 9.57545561047 12.5312755231 8.9817175688
H 10.5724549617 9.7584219715 10.1027536098
H 8.49346779075 10.183118275 9.64069573599
H 10.3164468927 9.00209360338 7.39315726174
H 9.95680055206 10.6384069183 7.25006926801
H 9.30741011211 11.8252156303 11.7486798755
H 10.8107519163 12.9022997758 11.6475844749
H 12.3593410034 11.3731916474 12.333982832
H 11.37613228 9.71015010689 12.4258803793
H 11.4107522803 11.1356769499 13.6113308943
C 8.80240684414 8.80167834809 12.5513426244
C 9.21220316875 8.21944402148 9.51182084946
C 9.07262146417 8.14246673037 11.1398911203
C 11.1230320752 11.098375633 8.80368561457
C 10.3817167471 12.1236174793 9.68930215878
C 9.5481740283 9.74683406886 9.60419504311
C 10.1887351252 9.93404993835 8.12878387413
C 10.4396895473 11.8507688976 11.4119387275
C 11.3250271679 10.9183969541 12.4246237592
