Optimised cartesian coordinates
 OpenBabel07021512193D

 23 22  0  0  0  0  0  0  0  0999 V2000
    8.2283    9.4059   12.1360 H   0  0  0  0  0  0  0  0  0  0  0  0
    8.7373    7.1542    8.1652 H   0  0  0  0  0  0  0  0  0  0  0  0
    9.6333    7.4517   10.8040 H   0  0  0  0  0  0  0  0  0  0  0  0
   11.6231   10.7028    8.5885 H   0  0  0  0  0  0  0  0  0  0  0  0
    9.0967   11.9047    8.5326 H   0  0  0  0  0  0  0  0  0  0  0  0
   10.0438    9.2705    9.5976 H   0  0  0  0  0  0  0  0  0  0  0  0
    8.0688    9.6740    9.1587 H   0  0  0  0  0  0  0  0  0  0  0  0
    9.8006    8.5520    7.0235 H   0  0  0  0  0  0  0  0  0  0  0  0
    9.4590   10.1065    6.8876 H   0  0  0  0  0  0  0  0  0  0  0  0
    8.8420   11.2340   11.1612 H   0  0  0  0  0  0  0  0  0  0  0  0
   10.2702   12.2572   11.0652 H   0  0  0  0  0  0  0  0  0  0  0  0
   11.7414   10.8045   11.7173 H   0  0  0  0  0  0  0  0  0  0  0  0
   10.8073    9.2246   11.8046 H   0  0  0  0  0  0  0  0  0  0  0  0
   10.8402   10.5789   12.9308 H   0  0  0  0  0  0  0  0  0  0  0  0
    8.3623    8.3616   11.9238 C   0  0  0  0  0  0  0  0  0  0  0  0
    8.7516    7.8085    9.0362 C   0  0  0  0  0  0  0  0  0  0  0  0
    8.6190    7.7353   10.5829 C   0  0  0  0  0  0  0  0  0  0  0  0
   10.5669   10.5435    8.3635 C   0  0  0  0  0  0  0  0  0  0  0  0
    9.8626   11.5174    9.2048 C   0  0  0  0  0  0  0  0  0  0  0  0
    9.0708    9.2595    9.1240 C   0  0  0  0  0  0  0  0  0  0  0  0
    9.6793    9.4373    7.7223 C   0  0  0  0  0  0  0  0  0  0  0  0
    9.9177   11.2582   10.8413 C   0  0  0  0  0  0  0  0  0  0  0  0
   10.7588   10.3725   11.8034 C   0  0  0  0  0  0  0  0  0  0  0  0
  2 16  1  0  0  0  0
  5 19  1  0  0  0  0
  8 21  1  0  0  0  0
  9 21  1  0  0  0  0
 12 23  1  0  0  0  0
 15  1  1  0  0  0  0
 16 20  1  0  0  0  0
 16 17  1  0  0  0  0
 17  3  1  0  0  0  0
 17 15  1  0  0  0  0
 18  4  1  0  0  0  0
 18 19  1  0  0  0  0
 19 22  1  0  0  0  0
 20  7  1  0  0  0  0
 20  6  1  0  0  0  0
 21 18  1  0  0  0  0
 21 20  1  0  0  0  0
 22 11  1  0  0  0  0
 22 10  1  0  0  0  0
 22 23  1  0  0  0  0
 23 13  1  0  0  0  0
 23 14  1  0  0  0  0
M  RAD  5  15   3  16   2  17   2  18   2  19   2
M  END
