Optimised cartesian coordinates
 OpenBabel07021512193D

 23 22  0  0  0  0  0  0  0  0999 V2000
    9.5276   10.8910   14.0522 H   0  0  0  0  0  0  0  0  0  0  0  0
   10.1169    8.2838    9.4544 H   0  0  0  0  0  0  0  0  0  0  0  0
   11.1544    8.6282   12.5099 H   0  0  0  0  0  0  0  0  0  0  0  0
   13.4583   12.3928    9.9446 H   0  0  0  0  0  0  0  0  0  0  0  0
   10.5330   13.7844    9.8799 H   0  0  0  0  0  0  0  0  0  0  0  0
   11.6297   10.7343   11.1130 H   0  0  0  0  0  0  0  0  0  0  0  0
    9.3428   11.2014   10.6048 H   0  0  0  0  0  0  0  0  0  0  0  0
   11.3481    9.9023    8.1325 H   0  0  0  0  0  0  0  0  0  0  0  0
   10.9525   11.7022    7.9751 H   0  0  0  0  0  0  0  0  0  0  0  0
   10.2382   13.0077   12.9235 H   0  0  0  0  0  0  0  0  0  0  0  0
   11.8918   14.1925   12.8123 H   0  0  0  0  0  0  0  0  0  0  0  0
   13.5953   12.5105   13.5674 H   0  0  0  0  0  0  0  0  0  0  0  0
   12.5137   10.6812   13.6685 H   0  0  0  0  0  0  0  0  0  0  0  0
   12.5518   12.2492   14.9725 H   0  0  0  0  0  0  0  0  0  0  0  0
    9.6826    9.6818   13.8065 C   0  0  0  0  0  0  0  0  0  0  0  0
   10.1334    9.0414   10.4630 C   0  0  0  0  0  0  0  0  0  0  0  0
    9.9799    8.9567   12.2539 C   0  0  0  0  0  0  0  0  0  0  0  0
   12.2353   12.2082    9.6841 C   0  0  0  0  0  0  0  0  0  0  0  0
   11.4199   13.3360   10.6582 C   0  0  0  0  0  0  0  0  0  0  0  0
   10.5030   10.7215   10.5646 C   0  0  0  0  0  0  0  0  0  0  0  0
   11.2076   10.9275    8.9417 C   0  0  0  0  0  0  0  0  0  0  0  0
   11.4837   13.0358   12.5531 C   0  0  0  0  0  0  0  0  0  0  0  0
   12.4575   12.0102   13.6671 C   0  0  0  0  0  0  0  0  0  0  0  0
  2 16  1  0  0  0  0
  5 19  1  0  0  0  0
  8 21  1  0  0  0  0
  9 21  1  0  0  0  0
 12 23  1  0  0  0  0
 15  1  1  0  0  0  0
 16 20  1  0  0  0  0
 16 17  1  0  0  0  0
 17  3  1  0  0  0  0
 17 15  1  0  0  0  0
 18  4  1  0  0  0  0
 18 19  1  0  0  0  0
 19 22  1  0  0  0  0
 20  7  1  0  0  0  0
 20  6  1  0  0  0  0
 21 18  1  0  0  0  0
 21 20  1  0  0  0  0
 22 11  1  0  0  0  0
 22 10  1  0  0  0  0
 22 23  1  0  0  0  0
 23 13  1  0  0  0  0
 23 14  1  0  0  0  0
M  RAD  5  15   3  16   2  17   2  18   2  19   2
M  END
