Optimised cartesian coordinates
 OpenBabel07021512193D

 23 22  0  0  0  0  0  0  0  0999 V2000
    9.0945   10.3960   13.4135 H   0  0  0  0  0  0  0  0  0  0  0  0
    9.6570    7.9072    9.0247 H   0  0  0  0  0  0  0  0  0  0  0  0
   10.6474    8.2360   11.9412 H   0  0  0  0  0  0  0  0  0  0  0  0
   12.8466   11.8295    9.4926 H   0  0  0  0  0  0  0  0  0  0  0  0
   10.0542   13.1578    9.4308 H   0  0  0  0  0  0  0  0  0  0  0  0
   11.1011   10.2463   10.6079 H   0  0  0  0  0  0  0  0  0  0  0  0
    8.9181   10.6923   10.1227 H   0  0  0  0  0  0  0  0  0  0  0  0
   10.8323    9.4522    7.7628 H   0  0  0  0  0  0  0  0  0  0  0  0
   10.4546   11.1703    7.6126 H   0  0  0  0  0  0  0  0  0  0  0  0
    9.7728   12.4165   12.3361 H   0  0  0  0  0  0  0  0  0  0  0  0
   11.3513   13.5474   12.2300 H   0  0  0  0  0  0  0  0  0  0  0  0
   12.9773   11.9419   12.9507 H   0  0  0  0  0  0  0  0  0  0  0  0
   11.9449   10.1957   13.0472 H   0  0  0  0  0  0  0  0  0  0  0  0
   11.9813   11.6925   14.2919 H   0  0  0  0  0  0  0  0  0  0  0  0
    9.2425    9.2418   13.1789 C   0  0  0  0  0  0  0  0  0  0  0  0
    9.6728    8.6304    9.9874 C   0  0  0  0  0  0  0  0  0  0  0  0
    9.5263    8.5496   11.6969 C   0  0  0  0  0  0  0  0  0  0  0  0
   11.6792   11.6533    9.2439 C   0  0  0  0  0  0  0  0  0  0  0  0
   10.9008   12.7298   10.1738 C   0  0  0  0  0  0  0  0  0  0  0  0
   10.0256   10.2342   10.0844 C   0  0  0  0  0  0  0  0  0  0  0  0
   10.6982   10.4308    8.5352 C   0  0  0  0  0  0  0  0  0  0  0  0
   10.9617   12.4433   11.9825 C   0  0  0  0  0  0  0  0  0  0  0  0
   11.8913   11.4643   13.0459 C   0  0  0  0  0  0  0  0  0  0  0  0
  2 16  1  0  0  0  0
  5 19  1  0  0  0  0
  8 21  1  0  0  0  0
  9 21  1  0  0  0  0
 12 23  1  0  0  0  0
 15  1  1  0  0  0  0
 16 20  1  0  0  0  0
 16 17  1  0  0  0  0
 17  3  1  0  0  0  0
 17 15  1  0  0  0  0
 18  4  1  0  0  0  0
 18 19  1  0  0  0  0
 19 22  1  0  0  0  0
 20  7  1  0  0  0  0
 20  6  1  0  0  0  0
 21 18  1  0  0  0  0
 21 20  1  0  0  0  0
 22 11  1  0  0  0  0
 22 10  1  0  0  0  0
 22 23  1  0  0  0  0
 23 13  1  0  0  0  0
 23 14  1  0  0  0  0
M  RAD  5  15   3  16   2  17   2  18   2  19   2
M  END
