23
Optimised cartesian coordinates
H 6.9291324624 7.92076288931 10.2197843043
H 7.35771582987 6.02457044455 6.87596337418
H 8.1122862606 6.27507699412 9.09808390388
H 9.78786770101 9.01291680794 7.23243556325
H 7.66036448838 10.0250204184 7.18537405504
H 8.4579639694 7.8067375772 8.08220288786
H 6.7947742326 8.14649461998 7.71255658879
H 8.25315751413 7.20167488271 5.91452580939
H 7.96544044165 8.51072553465 5.80005541441
H 7.44592808969 9.46017250421 9.3989439004
H 8.64860153308 10.3218398206 9.31806757991
H 9.88747280274 9.09855331789 9.86718626559
H 9.10090582397 7.76812008551 9.94070430342
H 9.12860182427 8.90854155992 10.8890647154
C 7.04192547532 7.04134267847 10.0410740995
C 7.369762535 6.57555521718 7.60945667957
C 7.25809717134 6.51397338429 8.91191289626
C 8.89842566016 8.87870050639 7.04294849166
C 8.30537339768 9.69889398343 7.75144172702
C 7.63853922264 7.79746725509 7.68335603449
C 8.1509881002 7.94723995068 6.5030270993
C 8.35175163788 9.48061511808 9.12955098198
C 9.0600217343 8.73471756329 9.93969900738
