Optimised cartesian coordinates
 OpenBabel07021512193D

 23 21  0  0  0  0  0  0  0  0999 V2000
    9.9606   11.3861   14.6909 H   0  0  0  0  0  0  0  0  0  0  0  0
   10.5767    8.6603    9.8842 H   0  0  0  0  0  0  0  0  0  0  0  0
   11.6614    9.0204   13.0785 H   0  0  0  0  0  0  0  0  0  0  0  0
   14.0701   12.9561   10.3966 H   0  0  0  0  0  0  0  0  0  0  0  0
   11.0118   14.4110   10.3290 H   0  0  0  0  0  0  0  0  0  0  0  0
   12.1583   11.2222   11.6182 H   0  0  0  0  0  0  0  0  0  0  0  0
    9.7675   11.7106   11.0868 H   0  0  0  0  0  0  0  0  0  0  0  0
   11.8639   10.3524    8.5021 H   0  0  0  0  0  0  0  0  0  0  0  0
   11.4503   12.2342    8.3376 H   0  0  0  0  0  0  0  0  0  0  0  0
   10.7035   13.5990   13.5110 H   0  0  0  0  0  0  0  0  0  0  0  0
   12.4324   14.8376   13.3947 H   0  0  0  0  0  0  0  0  0  0  0  0
   14.2132   13.0792   14.1841 H   0  0  0  0  0  0  0  0  0  0  0  0
   13.0826   11.1667   14.2898 H   0  0  0  0  0  0  0  0  0  0  0  0
   13.1224   12.8060   15.6530 H   0  0  0  0  0  0  0  0  0  0  0  0
   10.1228   10.1219   14.4340 C   0  0  0  0  0  0  0  0  0  0  0  0
   10.5940    9.4524   10.9386 C   0  0  0  0  0  0  0  0  0  0  0  0
   10.4335    9.3638   12.8109 C   0  0  0  0  0  0  0  0  0  0  0  0
   12.7915   12.7631   10.1242 C   0  0  0  0  0  0  0  0  0  0  0  0
   11.9390   13.9422   11.1427 C   0  0  0  0  0  0  0  0  0  0  0  0
   10.9804   11.2089   11.0448 C   0  0  0  0  0  0  0  0  0  0  0  0
   11.7170   11.4242    9.3481 C   0  0  0  0  0  0  0  0  0  0  0  0
   12.0056   13.6284   13.1237 C   0  0  0  0  0  0  0  0  0  0  0  0
   13.0238   12.5562   14.2883 C   0  0  0  0  0  0  0  0  0  0  0  0
  2 16  1  0  0  0  0
  5 19  1  0  0  0  0
  8 21  1  0  0  0  0
  9 21  1  0  0  0  0
 12 23  1  0  0  0  0
 15  1  1  0  0  0  0
 16 20  1  0  0  0  0
 16 17  1  0  0  0  0
 17  3  1  0  0  0  0
 17 15  1  0  0  0  0
 18  4  1  0  0  0  0
 18 19  1  0  0  0  0
 20  7  1  0  0  0  0
 20  6  1  0  0  0  0
 21 18  1  0  0  0  0
 21 20  1  0  0  0  0
 22 11  1  0  0  0  0
 22 10  1  0  0  0  0
 22 23  1  0  0  0  0
 23 13  1  0  0  0  0
 23 14  1  0  0  0  0
M  RAD  6  15   3  16   2  17   2  18   2  19   3  22   2
M  END
