23
Optimised cartesian coordinates
H 8.80363576084 9.95245056583 12.907649494
H 9.38627806002 7.59417078124 8.66020037608
H 10.2696850122 7.90465181109 11.4211366848
H 12.1843572817 11.3618511282 8.98083242062
H 9.63108675689 12.6617450686 9.01955307941
H 10.6466027002 9.8155089234 10.156140681
H 8.53401143082 10.1687949442 9.71962908753
H 10.3042850647 8.97348321246 7.51469200029
H 10.0642381119 10.5790845164 7.20442542419
H 9.34022152901 11.9061733786 11.8374020004
H 10.8847256386 13.0022452061 11.6694854648
H 12.4225855845 11.3710059197 12.3469469329
H 11.4394433549 9.79292537863 12.4550698094
H 11.4750703114 11.0835597179 13.6716434146
C 8.83722761194 8.88202592903 12.5440972342
C 9.41061851856 8.24224804169 9.62428026567
C 9.18563384756 8.17646517042 11.2093137649
C 10.987548708 11.2056540039 8.82464782141
C 10.3630925204 12.2789706684 9.83692528391
C 9.65033440858 9.84763903836 9.59704926158
C 10.2849347235 9.94843152887 8.13838571342
C 10.4166714252 11.8893249984 11.4334503061
C 11.3229848048 10.9946273641 12.4730462204
