16
Optimised cartesian coordinates
H 9.95420650726 10.446114009 10.014540763
H 9.90397498484 9.92026356156 10.0328979017
H 9.95460712308 9.96399841899 10.3170676208
H 9.9984002071 9.87655204196 9.99509844068
H 10.0411318848 10.0056361042 10.0032719518
H 10.0841721172 10.0817519344 10.087249358
H 10.0304414696 10.0833771591 9.97169145088
H 10.0473044191 10.047796927 10.0304429583
H 9.9393120321 9.97101770187 9.99130550932
H 10.0122084648 9.96199695165 10.0120102927
C 10.5314767566 9.99290982083 9.97672027384
C 9.97725377712 10.0305233279 10.0649454484
C 10.4274848288 9.98010593913 9.95725596746
C 10.0157224612 9.94511009058 9.97291850947
C 9.93643079731 10.0040400824 10.0055398226
C 10.0596363723 10.1226334042 10.0406219859
