16
Optimised cartesian coordinates
H 14.5157147574 12.5215957591 14.1999823651
H 13.3347000689 15.281603296 14.1161831814
H 16.1072077436 13.2815178126 14.0067182453
H 12.5068078851 13.4141034517 13.4180708714
H 13.7426580901 16.5705640647 14.0670762785
H 13.0370689023 13.4597476494 15.6223296051
H 15.7302004634 15.528733449 13.9026294667
H 16.8836197298 14.5245949357 14.5239483378
H 14.0338892345 13.1766389994 12.8225814367
H 15.4343442005 15.9073921971 16.0187142459
C 13.7446425023 15.0594714631 15.7008369219
C 12.9084857943 15.2994654324 13.1968978474
C 15.3058116021 14.0309578212 13.059421183
C 13.7763909367 15.3381198292 12.5923654562
C 14.1098050601 13.5487149651 15.1425935186
C 15.3375266156 14.3892042238 15.0401112183
