23
Optimised cartesian coordinates
H 7.80256684517 10.7626429564 8.51420750132
H 11.2987101662 10.2459372048 8.50666965435
H 9.25548933317 8.07036129984 8.5218655489
H 10.8772520906 12.5008551666 12.5255935211
H 9.96852868054 11.5976389921 9.6762811094
H 11.8147540022 8.46792873685 10.9736825086
H 13.0481644411 8.78435080358 10.3805299193
H 12.660501381 11.0194516646 12.2927890961
H 12.4745729883 11.5910681936 10.2638532566
H 7.97231109393 9.74583458711 10.7100138027
H 9.34385978472 8.70979391767 10.8554959273
H 9.25517303105 8.79487721779 13.1377129821
H 10.5303783884 9.70488826452 12.5475448325
H 9.1072459241 10.7268424566 13.1644611787
C 7.83018549546 9.58866905501 8.44385723855
C 10.9790363345 9.31372553285 9.04894829581
C 9.40211262237 9.19773228575 8.58305509241
C 10.9879703173 11.836719234 11.6049563318
C 9.76740520323 11.3392326204 10.7554808835
C 12.0040393143 9.41837339494 10.4283855013
C 12.2804286327 10.9591460776 11.1725710784
C 9.12321006017 9.82941401492 10.8639633457
C 9.32545452601 9.79827050019 12.478334547
