16
Optimised cartesian coordinates
H 11.6952630722 13.1869005257 10.7757577578
H 10.4660006548 10.5150665872 8.86645977158
H 8.92177276304 12.2321681892 10.9277944475
H 10.3139171192 8.0175628223 9.45351379883
H 8.11251103086 8.76327114926 9.87415084169
H 10.7038922682 7.83332429295 12.2378534837
H 10.8100368291 9.51491859085 11.627565578
H 8.07413463881 7.43006780486 12.2957522195
H 8.19226704674 9.60858101016 12.5597538708
H 9.27788221119 6.30366936336 10.5442620067
C 11.4108369689 12.1393337915 10.5824611897
C 9.69513726019 10.1976095271 9.584671221
C 9.7575859206 11.4390903508 10.562732479
C 9.32915059272 8.60933957153 10.0322685794
C 10.0792483928 8.61923974328 11.5349842589
C 8.60833872112 8.50619179604 12.1612923689
