23
Optimised cartesian coordinates
H 9.97089429641 9.97562174404 9.9354102476
H 9.97902720084 9.90230966772 9.94413340678
H 9.91270566268 9.91254031006 9.94968628601
H 9.91563848943 9.90401719086 9.92206513052
H 9.94954250061 9.9434604482 9.98965908158
H 9.97923476918 9.96378499106 9.90708221266
H 9.91126716316 9.93270321883 9.96314543419
H 9.96671112974 9.99078219619 9.99490190739
H 9.96773358344 9.91844328582 9.93307577002
H 9.90490001096 9.98403269065 9.90096894176
H 9.97243534216 9.95799371399 9.98560452726
H 9.95360693132 9.91883324551 9.96454129025
H 9.99084299048 9.90362228047 9.91892742451
H 9.98910391218 9.92318147539 9.9631315608
C 9.97310789624 9.94475794119 9.917555632
C 9.96908465788 9.90178781119 9.99714420473
C 9.97223901353 9.96991818739 9.97831439252
C 9.91799091246 9.91619708356 9.9281213307
C 9.93502723835 9.93244624903 9.95121068877
C 9.92942727563 9.94527750116 9.98612749824
C 9.98081060802 9.94514199604 9.99529359348
C 9.98387869022 9.94647642418 9.95494431558
C 9.92959988911 9.91757687184 9.95220085905
