23
Optimised cartesian coordinates
H 10.8454905023 7.14805410447 10.5471201843
H 11.0573564736 8.07102419552 8.19307810543
H 10.4477682592 9.94891622961 10.1250655302
H 7.19328061398 10.1776424455 9.91853012626
H 7.94823900189 10.239331711 12.5203977561
H 10.8531435519 10.6620321458 7.320616343
H 10.3449769249 11.1337457768 8.64293005701
H 8.82095983749 8.76366420873 8.42039423628
H 8.24859856184 9.88078410209 7.32862691137
H 10.3940996099 9.03012734749 12.3601143627
H 10.4810388502 11.2136101389 12.3062049614
H 12.0842843082 11.2356731814 11.7116785808
H 12.2555803034 9.99706900891 10.5419531988
H 12.9720747775 9.9939386224 12.1502753776
C 9.9046544602 7.61685903756 10.4085553022
C 10.9481207299 9.12857517137 8.42909094837
C 10.5057874741 8.89258859545 9.89446595777
C 8.2561563349 10.0962437281 9.97435388428
C 8.68695240396 10.1859683231 11.6466265744
C 10.1119207096 10.2973042623 8.02517223463
C 8.64216100081 9.83721035594 8.42958185335
C 10.3477844851 10.1056557092 12.0975980462
C 11.9404409586 10.1179535297 11.6621030179
