23
Optimised cartesian coordinates
H 9.13304463349 6.01941398271 8.8817854184
H 9.31145808307 6.79665195412 6.89943419405
H 8.79812063933 8.37803471967 8.5263709728
H 6.0574994644 8.57064626988 8.35244642212
H 6.69325389633 8.62259512505 10.5434928473
H 9.13948930685 8.97855338595 6.164729552
H 8.71155951569 9.37578591727 7.27825689011
H 7.42817670526 7.37992775472 7.09085830424
H 6.9461882626 8.32066029649 6.17147529379
H 8.75292598727 7.60431776631 10.4085173581
H 8.82613797915 9.44304011694 10.3631199675
H 10.1762394174 9.46161952115 9.86246617333
H 10.3204886766 8.41858442855 8.87743427269
H 10.9238524442 8.4159483136 10.2318108443
C 8.34076165069 6.41419708426 8.76509920185
C 9.21947008837 7.68722119694 7.09818185126
C 8.8469789256 7.48849565932 8.33218185918
C 6.95255270307 8.50209998156 8.39945590255
C 7.31532834017 8.5776575352 9.80768553632
C 8.51530165023 8.67141411562 6.75803977653
C 7.27760926384 8.28396661553 7.09859524493
C 8.71392377692 8.51002586037 10.1874509863
C 10.0551081756 8.52038191973 9.8207183309
