23
Optimised cartesian coordinates
H 11.5952643806 7.46776084429 7.88811307181
H 9.60455083682 7.48739611386 7.4225229325
H 10.4117745956 9.12572788765 8.95040824881
H 6.85291080955 7.4429949407 10.3537405383
H 7.73497663014 9.46702501201 9.71515438133
H 8.4796085826 9.78767058357 7.77401422329
H 8.6004237723 9.2291160517 8.8042500052
H 6.42130609932 8.70916257988 7.65547279547
H 6.21562311881 9.1167584922 8.73084282943
H 8.72762696091 7.68097334514 8.61794965165
H 7.81917035225 6.93910590835 8.66449269087
H 7.52692807802 7.35429483732 6.65057325672
H 8.44262511258 8.32347281633 6.31919548425
H 7.73563404624 9.13398449421 6.708259737
C 11.3943583535 8.37188288957 7.89024964082
C 9.42651996004 8.36435623918 7.58301666379
C 10.3699744662 8.99417892261 8.04235099325
C 6.87051041343 7.72851606668 9.42944921345
C 7.71450991148 8.56574177193 9.47992109326
C 8.31339494346 8.93281695162 7.99760854609
C 6.94133870238 8.66569456492 8.39932959395
C 7.8619954834 7.79972149719 8.35454922779
C 7.75707432343 8.25786092241 6.90347180787
