23
Optimised cartesian coordinates
H 11.6432417339 10.5229446156 14.0639907168
H 12.6120091739 9.72562107905 11.0136750957
H 9.5516118627 10.7317129 11.5791275719
H 15.7320289621 14.1971361633 14.2020318364
H 14.3498267615 11.3737832658 14.389647635
H 12.2974413799 12.8569169719 10.5422211205
H 13.4288339784 12.2390391936 9.20324645267
H 15.312668629 11.7330414392 11.6713887054
H 15.3661624478 13.98415394 11.0414746772
H 11.4908529918 12.7712919386 14.1624795515
H 12.7437655556 13.622190285 12.5997186793
H 11.7924463856 15.6177180116 12.4937248194
H 12.4320780305 15.7881291168 14.8169510287
H 10.5547401895 15.7776248804 14.0069763124
C 10.4766648001 10.6373468143 13.6172104458
C 12.3960241434 10.9433962722 11.0262310634
C 10.7831066417 10.8341002851 11.847795555
C 15.1572388703 13.576394771 13.2001362489
C 13.9938289538 12.5202066306 14.0017870362
C 13.4152043645 12.3322363228 10.5052703998
C 14.9513032702 12.9029983108 11.4617605815
C 12.4277144572 13.5245961349 13.7908971042
C 11.8000205597 15.3162728769 13.7521863251
