23
Optimised cartesian coordinates
H 11.1140034733 10.0446289513 13.4247184115
H 12.0387360297 9.28354739364 10.5130535005
H 9.11744768712 10.2439077682 11.0528035913
H 15.0169367366 13.5518117922 13.5564849347
H 13.6975619087 10.8567931174 13.7355727425
H 11.7384667717 12.272511655 10.0630292514
H 12.8184324339 11.6827192303 8.78491706846
H 14.6166382367 11.1997213738 11.140871037
H 14.6677005183 13.3485105791 10.5395894646
H 10.9685414922 12.1907786687 13.518730481
H 12.1645034849 13.0029998175 12.0270041939
H 11.2564260954 14.9078217383 11.9258282367
H 11.8669835746 15.0704868842 14.1434532547
H 10.0749792718 15.0604601131 13.3702955709
C 10.0004527638 10.15383105 12.9982463346
C 11.8325685006 10.4459691689 10.5250387423
C 10.2929654307 10.3416411813 11.3092593934
C 14.4682734671 12.9592859178 12.6001300558
C 13.3577458195 11.9511063292 13.3653421709
C 12.8054223479 11.7716801263 10.0277581089
C 14.2716985761 12.3164983876 10.9407714642
C 11.8628183455 12.9098417651 13.1640381449
C 11.2636559888 14.6200786552 13.1270869467
