16
Optimised cartesian coordinates
H 12.9858422972 18.1710201207 14.1866604885
H 13.2915637575 14.5922510208 14.2001947969
H 10.6621042604 16.3594363977 13.7110370968
H 10.932084539 13.3274484919 12.6281399275
H 12.4115662341 14.0523830992 11.3832844916
H 14.2415529481 12.5524380525 12.8052464015
H 12.7800564683 11.9571246223 14.150224323
H 13.0349155444 10.0494141169 12.1470262214
H 12.8001858386 11.5854170693 10.6479879444
H 11.2052073124 11.0277653858 12.1261568578
C 13.073824479 17.0481168012 13.8798626841
C 12.3258748281 14.394930701 13.7519996054
C 11.7770454741 15.9182568241 13.4454703589
C 12.1297564954 13.3810980725 12.3765410992
C 13.0839436962 12.290822572 13.0326868717
C 12.4532306585 11.2050460637 11.8360374471
