16
Optimised cartesian coordinates
H 8.15143359751 13.0869628404 7.97123296063
H 9.57803772568 10.2132184551 8.69979835481
H 8.46749519434 12.6360258824 10.7734843129
H 9.97663871583 10.6896680088 12.0102495617
H 11.4563147434 10.5560832524 10.7057218688
H 8.93459968738 8.32951948637 11.3628405491
H 10.3542125887 8.05386888471 9.8323894767
H 11.0504615285 8.82665625779 13.1941604557
H 11.0455390809 6.87498432226 12.2674372728
H 12.4462324087 8.50803161577 11.5349297241
C 8.1056262018 12.0379576548 8.38922315734
C 9.34148721521 10.381302808 9.75384590002
C 8.77852939931 11.797254363 9.98596677254
C 10.4209983181 10.1305442136 11.0214015259
C 10.069821911 8.45453573523 10.9410866595
C 11.3711359614 8.21826696088 12.0797293112
