23
Optimised cartesian coordinates
H 14.7506386072 9.38075373424 14.4341668918
H 13.9387185698 9.82195597515 10.4285273642
H 14.021958498 11.9020194671 12.8005971626
H 9.58071632633 14.2363412903 12.7104385808
H 10.1542317045 13.2132653762 15.506240326
H 13.1852907306 12.5612995867 9.04290566188
H 13.5692010157 13.1973765582 10.7116299327
H 10.921520472 11.4160805979 11.2282948431
H 10.2731051266 12.9660343345 10.0091157732
H 13.025575348 11.9067145984 15.867900698
H 13.0015246829 14.3460491881 15.7416381273
H 14.978684311 14.5809243507 15.4973834551
H 15.0113624933 13.5738419005 13.8469866514
H 16.0572694183 13.0656852014 15.3817775521
C 13.6761872503 9.79632732735 14.0442828188
C 13.6542966645 10.9749639637 10.7700117274
C 13.8615501214 10.6850320492 12.5207156215
C 10.6854755926 13.5356998697 12.7930909411
C 11.1297716624 13.3014769064 14.644797571
C 12.7286699635 12.4176483359 10.2885095927
C 11.0206145743 12.7204205095 11.0918993937
C 12.9096566742 13.1736105022 15.3620038081
C 14.7983875056 13.3914324216 15.0784419307
