23
Optimised cartesian coordinates
H 11.3982207419 7.24876424919 11.1536744164
H 10.7708279857 7.58969325353 8.05840750869
H 10.8351497485 9.19701504278 9.8913705347
H 7.40328079762 11.0008091789 9.82170253973
H 7.84645177168 10.210250518 11.9820947973
H 10.1886337464 9.70645877156 6.98769982963
H 10.4852916939 10.197972795 8.27716858438
H 8.4393567284 8.82151682561 8.6764096515
H 7.93830850693 10.0192083494 7.73431673385
H 10.0652173144 9.20064309877 12.2615596302
H 10.0466327095 11.0855834636 12.1639930984
H 11.5744378767 11.2670779074 11.9752508516
H 11.5996891994 10.4888778322 10.6999442306
H 12.407890005 10.096211292 11.8859190175
C 10.5679628752 7.56988929841 10.85240036
C 10.5510474226 8.48065397193 8.32228178934
C 10.7111978211 8.25661567437 9.67509843481
C 8.25695841245 10.4594044447 9.88557027263
C 8.60027810277 10.2784139731 11.3164344867
C 9.83579042631 9.59545553227 7.95021195799
C 8.51592944379 9.82941584824 8.57101316788
C 9.97564379371 10.1796081153 11.8706393062
C 11.435117618 10.3479250531 11.6515233101
