23
Optimised cartesian coordinates
H 12.7391878881 8.10156004321 12.4658714066
H 12.0379842193 8.48259834218 9.00645545089
H 12.1098732483 10.2790168125 11.0550611858
H 8.2742550091 12.2950220234 10.9771969562
H 8.76956374481 11.4114564613 13.3917530088
H 11.3872965401 10.8483950976 7.80978216253
H 11.7188554226 11.3977343003 9.25095312372
H 9.43222222586 9.85934233451 9.69716372814
H 8.8722271548 11.1979387435 8.64423634959
H 11.2493605278 10.2830716986 13.7040960573
H 11.2285894988 12.3897697534 13.5950511099
H 12.9361364504 12.5926164847 13.384103893
H 12.9643585169 11.7228634596 11.9587611989
H 13.8676417703 11.2840008557 13.2842624314
C 11.8112526252 8.46046450998 12.1291533435
C 11.7923471193 9.47837796863 9.30137376456
C 11.9713387412 9.2279822243 10.8133453095
C 9.22836528451 11.6899226147 11.04857854
C 9.61207552663 11.4876391464 12.6477797204
C 10.9929422412 10.7243326537 8.88553101187
C 9.517803496 10.9858177127 9.57936765822
C 11.1492489459 11.3772090701 13.267185107
C 12.780425573 11.5653280005 13.0222907583
