23
Optimised cartesian coordinates
H 11.8543501556 11.5187816391 7.34129305683
H 8.94286825024 11.1793471984 8.37410567702
H 10.242939999 9.27495549128 6.70359721002
H 8.64194921452 7.0712254011 9.54057296006
H 8.77609552236 9.44524529978 8.30720382441
H 11.5543339991 10.5056909858 9.45950287935
H 10.5422162854 10.0462703507 10.5667232737
H 11.7993472058 7.75225734644 10.1111554924
H 11.1369878707 7.91914242962 8.69196545425
H 8.01480611082 9.26050616763 10.9019809978
H 7.92838351862 11.3191207467 10.2224088972
H 8.64783532492 11.3835571491 12.4674624326
H 10.0982095212 10.77289442 12.0700074433
H 9.3919746933 11.8955953502 11.1583272119
C 11.4057354751 11.293282757 6.41233882128
C 10.061141188 10.849687166 8.36100306015
C 10.3122340864 10.39244733 6.89921629502
C 9.24239888399 7.9809476009 9.55228569159
C 8.55184467407 9.34625614775 9.28663221545
C 10.6555898245 9.88892810136 9.50185743975
C 10.8500316749 8.27487589773 9.70535440547
C 8.21798564673 10.2542106109 10.4497623402
C 9.06127874365 10.9409053567 11.5672632923
