23
Optimised cartesian coordinates
H 10.6065238235 10.3062783087 6.56852536663
H 8.00151369758 10.0025738091 7.49262086891
H 9.16473578861 8.29864438694 5.99795539844
H 7.73227034983 6.32688588519 8.53630212216
H 7.85229599369 8.45100895244 7.43276131658
H 10.338088315 9.39982877676 8.46376573415
H 9.43250930803 8.98876820848 9.45443661334
H 10.5573106579 6.93623025734 9.04682333532
H 9.96467335796 7.08554848966 7.77702172222
H 7.17114230968 8.28571604472 9.75440405062
H 7.09381683245 10.1276343523 9.14636585537
H 7.73753686967 10.1852879755 11.155097966
H 9.03524009794 9.63890553369 10.799480344
H 8.40334577822 10.6434274186 9.98376645278
C 10.2051317409 10.104516151 5.73735578746
C 9.0020736945 9.70761483278 7.48089747488
C 9.2267357615 9.29850550578 6.17298300081
C 8.26951479094 7.14084785343 8.54678193458
C 7.65165049786 8.36243971115 8.30909198224
C 9.53394879037 8.84798830122 8.50166191977
C 9.70792307758 7.40383632955 8.68373815226
C 7.35293452602 9.17482002026 9.34978735701
C 8.10745992853 9.7892311086 10.34965663
