23
Optimised cartesian coordinates
H 14.35000282 13.9437883 8.88682843721
H 10.8255773555 13.532893977 10.1370752932
H 12.3993484199 11.2275777 8.11488083318
H 10.4613069439 8.5599044329 11.5491146359
H 10.6236945797 11.4337179945 10.0560888401
H 13.9868253673 12.7174154039 11.4509771697
H 12.7616302403 12.161274635 12.7912965945
H 14.2834203018 9.38431152464 12.2398198066
H 13.4816168961 9.58633030954 10.5218529183
H 9.7021337131 11.2100864134 13.197134892
H 9.59751689096 13.7020935354 12.3744949808
H 10.4684322354 13.7800954963 15.0921913658
H 12.2241483678 13.0408721926 14.6110616419
H 11.3692325235 14.3999312134 13.5074487302
C 13.8069429435 13.670815969 7.76230488891
C 12.1792761749 13.1338318326 10.1212142307
C 12.4832307362 12.5803309784 8.35168288345
C 11.1881670701 9.66114709582 11.5632932056
C 10.3522330265 11.313889021 11.2417126819
C 12.8988718928 11.9708077016 11.5022484797
C 13.1342488697 10.0169550341 11.7485869119
C 9.94808788815 12.4129917921 12.6497123065
C 10.9689163739 13.2442538528 14.002476617
