23
Optimised cartesian coordinates
H 13.1021764878 12.7312849695 8.11406074702
H 9.88422280289 12.3561205877 9.25559048513
H 11.3211442095 10.2512665956 7.4092390216
H 9.55162807921 7.815564917 10.544843798
H 9.69989505103 10.4394816471 9.18164633224
H 12.7705796832 11.6115531948 10.4552400245
H 11.6519232629 11.1037724928 11.6790099341
H 13.0413837538 8.56828443554 11.1754876495
H 12.3093023834 8.75273636958 9.60690918627
H 8.85846991196 10.2352962905 12.0495579449
H 8.76295020479 12.510607141 11.298451939
H 9.55813378018 12.5818263227 13.7798268992
H 11.1611789445 11.9068833063 13.3405345426
H 10.3806036084 13.1477632818 12.3328879711
C 12.6063392093 12.482049363 7.0873218551
C 11.1202086814 11.9917594993 9.24110864543
C 11.3977324113 11.4863891542 7.62544958923
C 10.215282977 8.82104734836 10.5577894486
C 9.45203885029 10.3300725844 10.2641724487
C 11.7772308587 10.9298679015 10.5020529597
C 11.9921402723 9.14591546591 10.7269706587
C 9.08303676744 11.3336012015 11.5497373234
C 10.0150975588 12.0925796047 12.7848699546
