23
Optimised cartesian coordinates
H 9.00021680213 7.00666594923 12.3641789668
H 8.3625474887 8.01059941902 11.1912268987
H 9.95765867348 6.31671781604 9.66651365382
H 9.01733006804 12.0657393943 10.1477091484
H 9.92095796385 10.7372571016 7.73931399303
H 8.48265883887 8.50234164769 8.56323946348
H 7.94072162942 9.58099963718 8.58313958509
H 9.36761752784 9.86107496597 10.9808374181
H 7.28954509537 9.96637020131 11.0998330706
H 11.9498535385 8.92878672983 8.56939859932
H 10.7794445626 8.36698862542 9.06457474752
H 12.7540499592 10.9773236638 9.99895311144
H 11.7692273471 11.7281993788 9.19914745535
H 11.6116061373 10.687217471 10.7681733134
C 10.0231661853 7.00856642142 12.1188777228
C 8.71929616024 7.83343577456 10.1899820263
C 9.82030748895 6.85941722932 10.5937098946
C 9.04186591595 11.0138106012 9.90445232176
C 9.9539810921 10.5400138513 8.8041756844
C 8.27040821249 9.05655891033 9.45437852492
C 8.28996827691 9.99907514317 10.699397635
C 11.0564686005 9.47722892481 9.05329021935
C 11.7264889815 10.6919322397 9.64259077715
