Optimised cartesian coordinates
 OpenBabel07021512193D

 23 22  0  0  0  0  0  0  0  0999 V2000
   10.8950    8.4818   14.9672 H   0  0  0  0  0  0  0  0  0  0  0  0
   10.1231    9.6970   13.5473 H   0  0  0  0  0  0  0  0  0  0  0  0
   12.0540    7.6466   11.7016 H   0  0  0  0  0  0  0  0  0  0  0  0
   10.9157   14.6059   12.2841 H   0  0  0  0  0  0  0  0  0  0  0  0
   12.0096   12.9977    9.3686 H   0  0  0  0  0  0  0  0  0  0  0  0
   10.2685   10.2923   10.3660 H   0  0  0  0  0  0  0  0  0  0  0  0
    9.6125   11.5981   10.3901 H   0  0  0  0  0  0  0  0  0  0  0  0
   11.3397   11.9371   13.2926 H   0  0  0  0  0  0  0  0  0  0  0  0
    8.8242   12.0646   13.4366 H   0  0  0  0  0  0  0  0  0  0  0  0
   14.4656   10.8085   10.3735 H   0  0  0  0  0  0  0  0  0  0  0  0
   13.0488   10.1285   10.9729 H   0  0  0  0  0  0  0  0  0  0  0  0
   15.4391   13.2883   12.1040 H   0  0  0  0  0  0  0  0  0  0  0  0
   14.2470   14.1973   11.1358 H   0  0  0  0  0  0  0  0  0  0  0  0
   14.0562   12.9372   13.0352 H   0  0  0  0  0  0  0  0  0  0  0  0
   12.1333    8.4841   14.6702 C   0  0  0  0  0  0  0  0  0  0  0  0
   10.5549    9.4826   12.3352 C   0  0  0  0  0  0  0  0  0  0  0  0
   11.8877    8.3035   12.8240 C   0  0  0  0  0  0  0  0  0  0  0  0
   10.9454   13.3325   11.9896 C   0  0  0  0  0  0  0  0  0  0  0  0
   12.0496   12.7590   10.6577 C   0  0  0  0  0  0  0  0  0  0  0  0
   10.0115   10.9632   11.4448 C   0  0  0  0  0  0  0  0  0  0  0  0
   10.0352   12.1041   12.9519 C   0  0  0  0  0  0  0  0  0  0  0  0
   13.3841   11.4724   10.9592 C   0  0  0  0  0  0  0  0  0  0  0  0
   14.1952   12.9429   11.6726 C   0  0  0  0  0  0  0  0  0  0  0  0
  3 17  1  0  0  0  0
  5 19  1  0  0  0  0
  6 20  1  0  0  0  0
  7 20  1  0  0  0  0
 10 22  1  0  0  0  0
 13 23  1  0  0  0  0
 15  1  1  0  0  0  0
 16 17  1  0  0  0  0
 16  2  1  0  0  0  0
 17 15  1  0  0  0  0
 18  4  1  0  0  0  0
 18 21  1  0  0  0  0
 19 22  1  0  0  0  0
 19 18  1  0  0  0  0
 20 16  1  0  0  0  0
 20 21  1  0  0  0  0
 21  8  1  0  0  0  0
 21  9  1  0  0  0  0
 22 11  1  0  0  0  0
 22 23  1  0  0  0  0
 23 12  1  0  0  0  0
 23 14  1  0  0  0  0
M  RAD  5  15   3  16   2  17   2  18   2  19   2
M  END
