Optimised cartesian coordinates
 OpenBabel07021512193D

 23 22  0  0  0  0  0  0  0  0999 V2000
    7.5791    5.9004   10.4119 H   0  0  0  0  0  0  0  0  0  0  0  0
    7.0421    6.7458    9.4242 H   0  0  0  0  0  0  0  0  0  0  0  0
    8.3854    5.3193    8.1402 H   0  0  0  0  0  0  0  0  0  0  0  0
    7.5935   10.1606    8.5454 H   0  0  0  0  0  0  0  0  0  0  0  0
    8.3545    9.0419    6.5173 H   0  0  0  0  0  0  0  0  0  0  0  0
    7.1433    7.1599    7.2111 H   0  0  0  0  0  0  0  0  0  0  0  0
    6.6869    8.0682    7.2279 H   0  0  0  0  0  0  0  0  0  0  0  0
    7.8885    8.3041    9.2470 H   0  0  0  0  0  0  0  0  0  0  0  0
    6.1386    8.3927    9.3472 H   0  0  0  0  0  0  0  0  0  0  0  0
   10.0630    7.5190    7.2163 H   0  0  0  0  0  0  0  0  0  0  0  0
    9.0774    7.0459    7.6333 H   0  0  0  0  0  0  0  0  0  0  0  0
   10.7403    9.2441    8.4202 H   0  0  0  0  0  0  0  0  0  0  0  0
    9.9109    9.8764    7.7467 H   0  0  0  0  0  0  0  0  0  0  0  0
    9.7782    8.9998    9.0679 H   0  0  0  0  0  0  0  0  0  0  0  0
    8.4406    5.9020   10.2054 C   0  0  0  0  0  0  0  0  0  0  0  0
    7.3426    6.5966    8.5810 C   0  0  0  0  0  0  0  0  0  0  0  0
    8.2697    5.7764    8.9210 C   0  0  0  0  0  0  0  0  0  0  0  0
    7.6142    9.2748    8.3406 C   0  0  0  0  0  0  0  0  0  0  0  0
    8.3823    8.8758    7.4140 C   0  0  0  0  0  0  0  0  0  0  0  0
    6.9646    7.6266    7.9616 C   0  0  0  0  0  0  0  0  0  0  0  0
    6.9810    8.4203    9.0100 C   0  0  0  0  0  0  0  0  0  0  0  0
    9.3107    7.9808    7.6238 C   0  0  0  0  0  0  0  0  0  0  0  0
    9.8749    9.0037    8.1201 C   0  0  0  0  0  0  0  0  0  0  0  0
  3 17  1  0  0  0  0
  5 19  1  0  0  0  0
  6 20  1  0  0  0  0
  7 20  1  0  0  0  0
 10 22  1  0  0  0  0
 13 23  1  0  0  0  0
 15  1  1  0  0  0  0
 16 17  1  0  0  0  0
 16  2  1  0  0  0  0
 17 15  1  0  0  0  0
 18  4  1  0  0  0  0
 18 21  1  0  0  0  0
 19 22  1  0  0  0  0
 19 18  1  0  0  0  0
 20 16  1  0  0  0  0
 20 21  1  0  0  0  0
 21  8  1  0  0  0  0
 21  9  1  0  0  0  0
 22 11  1  0  0  0  0
 22 23  1  0  0  0  0
 23 12  1  0  0  0  0
 23 14  1  0  0  0  0
M  RAD  5  15   3  16   2  17   2  18   2  19   2
M  END
