23
Optimised cartesian coordinates
H 10.4213036656 8.11298162542 14.316417751
H 9.68294972376 9.27543090624 12.9582627248
H 11.5299205693 7.31409431331 11.1928052834
H 10.4411190262 13.9708561408 11.749979014
H 11.4874250108 12.432613486 8.96131093929
H 9.82202602396 9.84481664469 9.91532990508
H 9.19451978144 11.0937890536 9.93837215115
H 10.8467150322 11.4180868027 12.7146538525
H 8.44052589991 11.5400076015 12.8524382923
H 13.8366725182 10.3385951609 9.92246153605
H 12.4814621251 9.68809209259 10.4958233919
H 14.7678473212 12.710585295 11.5777351817
H 13.6275264019 13.5800203334 10.651644422
H 13.4450176327 12.3746728612 12.468411205
C 11.6057713725 8.11518217217 14.0323847316
C 10.0960271329 9.07029405475 11.7989265568
C 11.3708823556 7.94248310763 12.2664009306
C 10.4695289553 12.7528333277 11.4683132147
C 11.5256623172 12.2042265647 10.1943086872
C 9.57626214077 10.4865418962 10.9471751341
C 9.59891063643 11.5778764816 12.3887762089
C 12.8022268006 10.9736334919 10.4827570961
C 13.5780398733 12.380132067 11.1651051104
