23
Optimised cartesian coordinates
H 11.5863900714 11.4539784432 7.18242730075
H 9.16098684331 10.5545171987 7.66152549974
H 10.9607397773 8.98509792188 6.70355448517
H 8.84163598965 6.86571125555 9.45556237371
H 8.15738596165 8.78153430818 7.87004042781
H 11.3411158277 9.90289664378 8.89572359659
H 10.4208732906 9.74316242129 9.73162862751
H 11.0327035361 7.39110974072 9.48579499408
H 10.6746684847 7.72164561624 8.03776460446
H 8.01036176115 8.43944896352 10.424226928
H 8.15224122175 10.2951246901 9.88023503056
H 8.47811902073 9.81222299981 12.4416262118
H 9.59643763839 10.0186281536 11.6112069334
H 8.37155789263 10.8486607619 11.3641189001
C 11.3354083553 11.0615950389 6.34333988657
C 10.0034883406 10.1219041806 7.79299341999
C 10.7882443056 9.90133792418 6.75908167986
C 9.07908875408 7.75652108709 9.15741220182
C 8.24377334219 8.80100315551 8.90796601335
C 10.5208751663 9.34493899161 8.81174625824
C 10.4517619709 7.95238239402 8.95131499133
C 8.19227340864 9.36808189656 10.1806261511
C 8.57054810984 9.89857005524 11.4180702147
