23
Optimised cartesian coordinates
H 15.6757042143 15.4965590702 9.7174016422
H 12.3942763174 14.2796409159 10.3655933232
H 14.8292361693 12.1563089531 9.0695148917
H 11.9622133978 9.28890346339 12.7928196821
H 11.0364633599 11.8808993581 10.6477017553
H 15.3438625905 13.3980366357 12.0353907483
H 14.0988285697 13.1819256288 13.1663210843
H 14.9265989018 9.99973670804 12.833722639
H 14.4421985381 10.4469323043 10.8746227001
H 10.8375482651 11.4180780095 14.1033658438
H 11.0295028294 13.9286981101 13.3673768061
H 11.4703963222 13.2753605292 16.8327884041
H 12.9834156284 13.5546145608 15.7092799688
H 11.3262253841 14.6775998543 15.3749843942
C 15.336140716 14.9656874056 8.58216572889
C 13.5341312843 13.6943409502 10.5434616859
C 14.5958599429 13.3959277798 9.14463991981
C 12.2834730202 10.4941167649 12.3894400378
C 11.1533404041 11.9072395633 12.0519540181
C 14.234125225 12.6431527534 11.9217743494
C 14.140619137 10.7591055919 12.1106026353
C 11.0836640234 12.6744637424 13.773788322
C 11.5954474427 13.3921830159 15.4479773492
