Optimised cartesian coordinates
 OpenBabel07021512193D

 23 22  0  0  0  0  0  0  0  0999 V2000
   10.9048   10.7802    6.7599 H   0  0  0  0  0  0  0  0  0  0  0  0
    8.6221    9.9337    7.2108 H   0  0  0  0  0  0  0  0  0  0  0  0
   10.3160    8.4566    6.3092 H   0  0  0  0  0  0  0  0  0  0  0  0
    8.3215    6.4618    8.8994 H   0  0  0  0  0  0  0  0  0  0  0  0
    7.6775    8.2650    7.4071 H   0  0  0  0  0  0  0  0  0  0  0  0
   10.6740    9.3204    8.3724 H   0  0  0  0  0  0  0  0  0  0  0  0
    9.8079    9.1700    9.1592 H   0  0  0  0  0  0  0  0  0  0  0  0
   10.3837    6.9563    8.9278 H   0  0  0  0  0  0  0  0  0  0  0  0
   10.0467    7.2674    7.5650 H   0  0  0  0  0  0  0  0  0  0  0  0
    7.5392    7.9430    9.8110 H   0  0  0  0  0  0  0  0  0  0  0  0
    7.6727    9.6895    9.2990 H   0  0  0  0  0  0  0  0  0  0  0  0
    7.9794    9.2350   11.7098 H   0  0  0  0  0  0  0  0  0  0  0  0
    9.0319    9.4293   10.9282 H   0  0  0  0  0  0  0  0  0  0  0  0
    7.8791   10.2105   10.6956 H   0  0  0  0  0  0  0  0  0  0  0  0
   10.6686   10.4109    5.9702 C   0  0  0  0  0  0  0  0  0  0  0  0
    9.4150    9.5265    7.3346 C   0  0  0  0  0  0  0  0  0  0  0  0
   10.1536    9.3189    6.3615 C   0  0  0  0  0  0  0  0  0  0  0  0
    8.5450    7.3003    8.6187 C   0  0  0  0  0  0  0  0  0  0  0  0
    7.7588    8.2833    8.3840 C   0  0  0  0  0  0  0  0  0  0  0  0
    9.9020    8.7952    8.2934 C   0  0  0  0  0  0  0  0  0  0  0  0
    9.8370    7.4846    8.4248 C   0  0  0  0  0  0  0  0  0  0  0  0
    7.7104    8.8170    9.5818 C   0  0  0  0  0  0  0  0  0  0  0  0
    8.0664    9.3163   10.7464 C   0  0  0  0  0  0  0  0  0  0  0  0
  2 16  1  0  0  0  0
  3 17  1  0  0  0  0
  5 19  1  0  0  0  0
  9 21  1  0  0  0  0
 11 22  1  0  0  0  0
 14 23  1  0  0  0  0
 15 17  1  0  0  0  0
 15  1  1  0  0  0  0
 16 20  1  0  0  0  0
 17 16  1  0  0  0  0
 18  4  1  0  0  0  0
 19 18  1  0  0  0  0
 19 22  1  0  0  0  0
 20  6  1  0  0  0  0
 20 21  1  0  0  0  0
 20  7  1  0  0  0  0
 21 18  1  0  0  0  0
 21  8  1  0  0  0  0
 22 10  1  0  0  0  0
 22 23  1  0  0  0  0
 23 13  1  0  0  0  0
 23 12  1  0  0  0  0
M  RAD  5  15   3  16   2  17   2  18   2  19   2
M  END
