23
Optimised cartesian coordinates
H 14.3125995 14.1490321945 8.87241019505
H 11.3165131594 13.0379330102 9.46423738204
H 13.5397373719 11.0992386094 8.28086142285
H 10.9220209284 8.48117272745 11.6804005793
H 10.0767708938 10.8477776748 9.72181464612
H 14.0096136696 12.2329899717 10.9888350311
H 12.8728434766 12.0356712263 12.0214235987
H 13.6286337799 9.1301943856 11.7177467574
H 13.186355187 9.53850340829 9.92900333492
H 9.89515276378 10.4252016608 12.8769862052
H 10.0704156269 12.7175069701 12.2049962142
H 10.472970555 12.1209813527 15.3690676734
H 11.8544229651 12.3759524251 14.3432556236
H 10.3413362203 13.4012868235 14.0380292295
C 14.0025632624 13.6643232834 7.83589044812
C 12.3572503031 12.5035286936 9.62663893057
C 13.3266547305 12.2310644946 8.34945383983
C 11.2153449315 9.58158487228 11.3120974258
C 10.1834847168 10.8718274274 11.0039580165
C 12.9963752054 11.5437481661 10.885098319
C 12.9110000816 9.82353119262 11.057506754
C 10.1198671518 11.5723364605 12.5760675984
C 10.5871476651 12.2276453624 14.104674971
