23
Optimised cartesian coordinates
H 9.90611312263 6.34363516344 9.8025335476
H 9.91387152272 7.07624460165 7.14715554801
H 9.38131966993 8.45109029177 8.89723566054
H 6.4139266752 9.66303094976 8.68908851195
H 7.04114008912 9.31185766809 10.7819871912
H 9.23538360172 8.96707311292 6.19196204492
H 9.31417736902 9.49971970131 7.40929313657
H 7.56593945583 7.91772628123 7.61861927718
H 7.07647018033 9.02562624351 6.67200635562
H 9.02320381857 8.13849944656 10.7191405059
H 9.24680985554 9.95294347493 10.7421748393
H 10.7340782301 9.77227920363 10.7647913034
H 10.7794877708 9.07047194713 9.35892852107
H 11.3599523541 8.63327002633 10.501078544
C 9.08390143595 6.63214942546 9.59328741337
C 9.58609910265 7.84393495359 7.48679473402
C 9.39995344472 7.54539381451 8.74373395669
C 7.34164822953 9.38381012385 8.70586313461
C 7.75468886169 9.30976624425 10.1073385241
C 8.87592422539 8.79118374001 7.0586627027
C 7.5607034376 8.88165636671 7.51192410812
C 9.14395662358 9.05516511762 10.4679475853
C 10.5062809918 8.95210034411 10.2896732076
