23
Optimised cartesian coordinates
H 14.7164689379 14.5493411507 9.34539550776
H 11.5613336736 13.5764204751 9.94423314281
H 13.6834207947 11.4584511496 8.47107842897
H 11.238654163 8.79172073357 11.9939372764
H 10.3608150423 11.2690876445 10.1524018026
H 14.6102782588 12.684125998 11.2804480291
H 13.3001485372 12.4855487256 12.3606368729
H 14.060575526 9.39610886868 11.9831173403
H 13.6616166449 9.874066546 10.2411185081
H 9.92406561749 10.9723886387 13.4374717074
H 10.1629988995 13.263123104 12.6592266878
H 10.699734678 12.7497074184 15.9845435108
H 12.1548967856 12.939293242 14.7384644906
H 10.7668617875 14.1188079372 14.609578851
C 14.4974488262 14.1594427513 8.17294616722
C 12.7434166216 13.1715248994 9.96772871644
C 13.6325069924 12.7000243429 8.53922734112
C 11.5557998806 9.97625942346 11.7384490817
C 10.5194197966 11.3286560315 11.4014061217
C 13.4471533475 12.0583894886 11.1852301034
C 13.3116113246 10.2280418228 11.3966211736
C 10.3275537935 12.0815848877 13.0328512819
C 10.8470040765 12.8167666796 14.6792550823
