23
Optimised cartesian coordinates
H 13.3786081254 13.2266737734 8.49581409796
H 10.5103033397 12.3422004319 9.04021194801
H 12.4394734497 10.4167737724 7.70098038997
H 10.21695833 7.99247339415 10.9035793422
H 9.41892276568 10.2446251313 9.22945618419
H 13.2820711443 11.5310236346 10.2549527537
H 12.0910441247 11.3504988414 11.2369426117
H 12.7823413873 8.54191715335 10.8937430366
H 12.4196514954 8.97642413273 9.31010773461
H 9.02187783409 9.97489876244 12.2158833704
H 9.23908990867 12.05738464 11.508387898
H 9.72703152546 11.5906431076 14.5314031916
H 11.0499061687 11.7629938564 13.3986040823
H 9.78805617045 12.8352799429 13.2814353191
C 13.1794989329 12.872220683 7.42995106111
C 11.5849242015 11.9741135449 9.0615715604
C 12.3931881749 11.5454766753 7.76293394647
C 10.5052726187 9.0693267486 10.671317347
C 9.563108906 10.2987782104 10.3649146561
C 12.2246848613 10.9621722624 10.1683910031
C 12.1014648405 9.29821983894 10.3605647033
C 9.38868526681 10.9832589888 11.8480466199
C 9.86091279681 11.6516060724 13.3447773476
