23
Optimised cartesian coordinates
H 10.7028865003 10.5813390187 6.79665127837
H 8.40824267172 9.87376034554 7.2321695584
H 9.95157875975 8.33341901792 6.16078431198
H 8.17356666402 6.39397871532 8.72286347375
H 7.53513821255 8.19570010506 7.38356494736
H 10.6256569155 9.22481890764 8.20396220298
H 9.67283529979 9.08039907313 8.98955408939
H 10.2258731098 6.83353372268 8.71499442927
H 9.93572119633 7.18113930618 7.44808618769
H 7.21750226727 7.97991900995 9.77270669629
H 7.39127192694 9.645907712 9.20671031837
H 7.78162522037 9.27251448608 11.6251225533
H 8.83992493495 9.41039508511 10.7188832659
H 7.83044493636 10.2682239544 10.6251482553
C 10.5435991463 10.2977765464 5.94396084889
C 9.26793936117 9.57929083589 7.24925724832
C 9.9145505399 9.23638134026 6.21034715718
C 8.40421809497 7.25546139888 8.53705387762
C 7.6504871248 8.23902256835 8.29193172487
C 9.77974788906 8.7697378099 8.13471280244
C 9.68117187243 7.43857587115 8.28845176261
C 7.51094821345 8.78660719106 9.47843729591
C 7.88873023745 9.3212848579 10.6758218781
