Title Card Required
 OpenBabel07061510433D

 17 16  0  0  0  0  0  0  0  0999 V2000
    3.6446   -0.1584   -0.0002 C   0  0  0  0  0  0  0  0  0  0  0  0
    3.7645   -0.7948    0.8850 H   0  0  0  0  0  0  0  0  0  0  0  0
    3.7642   -0.7955   -0.8849 H   0  0  0  0  0  0  0  0  0  0  0  0
    4.4634    0.5691   -0.0005 H   0  0  0  0  0  0  0  0  0  0  0  0
    2.2825    0.5398   -0.0002 C   0  0  0  0  0  0  0  0  0  0  0  0
    2.2036    1.1946   -0.8791 H   0  0  0  0  0  0  0  0  0  0  0  0
    2.2038    1.1952    0.8782 H   0  0  0  0  0  0  0  0  0  0  0  0
    1.1057   -0.4455    0.0003 C   0  0  0  0  0  0  0  0  0  0  0  0
    1.1802   -1.1087   -0.8742 H   0  0  0  0  0  0  0  0  0  0  0  0
    1.1805   -1.1080    0.8754 H   0  0  0  0  0  0  0  0  0  0  0  0
   -0.2459    0.2227    0.0003 C   0  0  0  0  0  0  0  0  0  0  0  0
   -0.2493    1.3156    0.0006 H   0  0  0  0  0  0  0  0  0  0  0  0
   -1.4338   -0.4030    0.0000 C   0  0  0  0  0  0  0  0  0  0  0  0
   -1.5199   -1.4883   -0.0003 H   0  0  0  0  0  0  0  0  0  0  0  0
   -2.6903    0.3576    0.0000 C   0  0  0  0  0  0  0  0  0  0  0  0
   -2.5599    1.4648    0.0004 H   0  0  0  0  0  0  0  0  0  0  0  0
   -3.8009   -0.1405   -0.0003 O   0  0  0  0  0  0  0  0  0  0  0  0
  1  5  1  0  0  0  0
  1  2  1  0  0  0  0
  3  1  1  0  0  0  0
  4  1  1  0  0  0  0
  5  8  1  0  0  0  0
  5  7  1  0  0  0  0
  6  5  1  0  0  0  0
  8 11  1  0  0  0  0
  8 10  1  0  0  0  0
  9  8  1  0  0  0  0
 11 12  1  0  0  0  0
 13 15  1  0  0  0  0
 13 11  2  0  0  0  0
 14 13  1  0  0  0  0
 15 16  1  0  0  0  0
 17 15  2  0  0  0  0
M  END
