Optimised cartesian coordinates
 OpenBabel07021510543D

 23 22  0  0  0  0  0  0  0  0999 V2000
    8.6614    9.9010   12.7747 H   0  0  0  0  0  0  0  0  0  0  0  0
    9.1971    7.5307    8.5950 H   0  0  0  0  0  0  0  0  0  0  0  0
   10.1404    7.8438   11.3726 H   0  0  0  0  0  0  0  0  0  0  0  0
   12.2348   11.2661    9.0405 H   0  0  0  0  0  0  0  0  0  0  0  0
    9.5755   12.5313    8.9817 H   0  0  0  0  0  0  0  0  0  0  0  0
   10.5725    9.7584   10.1028 H   0  0  0  0  0  0  0  0  0  0  0  0
    8.4935   10.1831    9.6407 H   0  0  0  0  0  0  0  0  0  0  0  0
   10.3164    9.0021    7.3932 H   0  0  0  0  0  0  0  0  0  0  0  0
    9.9568   10.6384    7.2501 H   0  0  0  0  0  0  0  0  0  0  0  0
    9.3074   11.8252   11.7487 H   0  0  0  0  0  0  0  0  0  0  0  0
   10.8108   12.9023   11.6476 H   0  0  0  0  0  0  0  0  0  0  0  0
   12.3593   11.3732   12.3340 H   0  0  0  0  0  0  0  0  0  0  0  0
   11.3761    9.7102   12.4259 H   0  0  0  0  0  0  0  0  0  0  0  0
   11.4108   11.1357   13.6113 H   0  0  0  0  0  0  0  0  0  0  0  0
    8.8024    8.8017   12.5513 C   0  0  0  0  0  0  0  0  0  0  0  0
    9.2122    8.2194    9.5118 C   0  0  0  0  0  0  0  0  0  0  0  0
    9.0726    8.1425   11.1399 C   0  0  0  0  0  0  0  0  0  0  0  0
   11.1230   11.0984    8.8037 C   0  0  0  0  0  0  0  0  0  0  0  0
   10.3817   12.1236    9.6893 C   0  0  0  0  0  0  0  0  0  0  0  0
    9.5482    9.7468    9.6042 C   0  0  0  0  0  0  0  0  0  0  0  0
   10.1887    9.9340    8.1288 C   0  0  0  0  0  0  0  0  0  0  0  0
   10.4397   11.8508   11.4119 C   0  0  0  0  0  0  0  0  0  0  0  0
   11.3250   10.9184   12.4246 C   0  0  0  0  0  0  0  0  0  0  0  0
  2 16  1  0  0  0  0
  5 19  1  0  0  0  0
  8 21  1  0  0  0  0
  9 21  1  0  0  0  0
 12 23  1  0  0  0  0
 15  1  1  0  0  0  0
 16 20  1  0  0  0  0
 16 17  1  0  0  0  0
 17  3  1  0  0  0  0
 17 15  1  0  0  0  0
 18  4  1  0  0  0  0
 18 19  1  0  0  0  0
 19 22  1  0  0  0  0
 20  7  1  0  0  0  0
 20  6  1  0  0  0  0
 21 18  1  0  0  0  0
 21 20  1  0  0  0  0
 22 11  1  0  0  0  0
 22 10  1  0  0  0  0
 22 23  1  0  0  0  0
 23 13  1  0  0  0  0
 23 14  1  0  0  0  0
M  RAD  5  15   3  16   2  17   2  18   2  19   2
M  END
