23
Optimised cartesian coordinates
H 7.02912709453 11.1364046702 6.17005841784
H 9.32215792881 10.5805830308 8.44625139791
H 9.43309866462 10.8947268487 6.1557269533
H 10.2672924061 7.47919022946 8.58765750984
H 9.44194648335 8.96051026107 7.14891879933
H 7.56555776397 9.15568186067 8.7877254508
H 6.96463580371 9.54721041926 7.91150183087
H 8.19920949717 8.21622210455 6.50209996489
H 7.96049458662 7.32381234416 7.48537393107
H 8.03046701243 7.6190351506 8.95007972074
H 9.22110790246 8.05643222872 9.54568378133
H 9.12912396265 6.22383689011 7.29717570575
H 8.77731874137 5.47312193093 8.55417566693
H 9.91220312864 6.16651895313 8.62238326732
C 7.90263065182 11.079933653 6.16006663438
C 8.49998422837 10.4383398477 8.07299908502
C 8.85195161964 10.8029796173 6.87509792777
C 9.76776763943 7.66105918522 7.77884225591
C 9.46604936918 8.72397905656 8.07103426417
C 7.84490824207 9.33295619092 7.92943034976
C 8.34952432266 8.14826564236 7.40255752854
C 8.96885219947 7.63083379368 8.77179716089
C 9.06990991077 6.34206849261 8.25018593722
