23
Optimised cartesian coordinates
H 8.78640886816 13.9205058377 7.7125730223
H 11.652697411 13.2257287885 10.5578142474
H 11.7913733308 13.6184085608 7.69465869162
H 12.8341155077 9.34898778682 10.7345718873
H 11.8024331042 11.2006378263 8.93614849916
H 9.45694720496 11.4446023258 10.9846568135
H 8.70579475464 11.9340130241 9.88937728859
H 10.2490118715 10.2702776307 8.12762495611
H 9.95061823328 9.1547654302 9.35671741384
H 10.0380837655 9.52379393825 11.1875996509
H 11.5263848781 10.0705402859 11.9321047267
H 11.4114049533 7.77979611263 9.12146963219
H 10.9716484267 6.84140241366 10.6927195837
H 12.3902539108 7.70814869141 10.7779790842
C 9.87828831477 13.8499170662 7.70008329298
C 10.6249802855 13.0479248097 10.0912488563
C 11.0649395245 13.5037245216 8.59387240971
C 12.2097095493 9.57632398153 9.72355281989
C 11.8325617115 10.9049738207 10.0887928302
C 9.80613530259 11.6661952387 9.91178793721
C 10.4369054033 10.1853320529 9.25319691067
C 11.2110652493 9.5385422421 10.9647464511
C 11.3373873885 7.92758561576 10.3127324215
