23
Optimised cartesian coordinates
H 9.22572931157 14.6165311296 8.09820167341
H 12.2353322816 13.887015228 11.0857049598
H 12.3809419973 14.2993289889 8.07939162621
H 13.475821283 9.81643717616 11.2713004817
H 12.3925547594 11.7606697176 9.38295592411
H 9.9297945652 12.0168324421 11.5338896542
H 9.14108449237 12.5307136753 10.383846153
H 10.761462465 10.7837915122 8.53400620392
H 10.4481491449 9.61250370171 9.82455328453
H 10.5399879538 9.99998363516 11.7469796335
H 12.102704122 10.5740673002 12.528709963
H 11.981975201 8.16878591827 9.5775431138
H 11.520230848 7.18347253434 11.2273555628
H 13.0097666063 8.09355612598 11.3168780384
C 10.3722027305 14.5424129196 8.08508745763
C 11.1562292997 13.7003210502 10.5958112991
C 11.6181865008 14.1789107477 9.02356603019
C 12.8201950268 10.0551401806 10.2097304609
C 12.424189797 11.4502225117 10.5932324717
C 10.2964420677 12.2495050006 10.4073773341
C 10.9587506735 10.6945986556 9.71585675621
C 11.7716185118 10.0154693542 11.5129837737
C 11.9042567579 8.32396489655 10.8283690426
