23
Optimised cartesian coordinates
H 8.34708842476 13.2244805458 7.32694437118
H 11.0700625405 12.5644423491 10.029923535
H 11.2018046642 12.9374881328 7.30992575704
H 12.1924097323 8.88153839748 10.1978432929
H 11.212311449 10.640605935 8.4893410742
H 8.98409984471 10.8723722095 10.4354239728
H 8.27050501691 11.3373123729 9.39490842416
H 9.73656127789 9.75676374915 7.72124370831
H 9.45308732162 8.69702715869 8.88888154315
H 9.53617957726 9.04760424134 10.6282196684
H 10.9500656342 9.5670132716 11.3354994903
H 10.8408347056 7.390806307 8.66539615058
H 10.4230660054 6.49933229298 10.1580836045
H 11.7707412153 7.32274125684 10.2390801299
C 9.38437389903 13.1574212129 7.31507912833
C 10.0937312712 12.3955285692 9.58668641346
C 10.5116925483 12.8285382955 8.16417878922
C 11.5992240718 9.09750778245 9.23737517889
C 11.2409336259 10.3597251297 9.5843531887
C 9.31582853746 11.0828854767 9.41619854035
C 9.91506013316 9.6760654503 8.79053706514
C 10.6505119869 9.06161512999 10.4165091286
C 10.770518019 7.53120633498 9.79709580045
