23
Optimised cartesian coordinates
H 14.8605208324 9.37522820884 14.5154977253
H 14.0596884698 10.0549747078 10.8947353966
H 14.0878380168 12.3583293435 13.2865406755
H 9.73089319751 14.4577957942 12.8762785662
H 10.4708342918 13.9198402543 15.9163383275
H 13.7133281862 12.9650602949 9.22067809966
H 14.0354802531 13.6355271327 11.0312786544
H 11.1832724153 11.8213035604 11.3823443008
H 10.6443413237 13.5392040648 9.96945308589
H 13.3169539705 12.2061069172 16.2334210034
H 13.502566427 14.9002805131 16.1256565485
H 15.672409482 14.7660462376 16.1129267173
H 15.5786811405 13.7845171947 14.2237619353
H 16.5767504278 13.1870044836 16.0106096906
C 13.6656537199 9.86084979363 14.2767904247
C 13.9723501341 11.3391948119 11.0756726525
C 14.0333012105 11.0924031272 12.9334476218
C 10.9393618526 13.9607445255 13.0690632094
C 11.5096654992 13.8937697121 14.9608537267
C 13.1299032264 12.9107341011 10.5079562175
C 11.2936618827 13.1937479055 11.1694833218
C 13.2929795143 13.5219592098 15.8015888377
C 15.2784745421 13.6267497574 15.5791503776
