16
Optimised cartesian coordinates
H -2.66101453949 1.20251678369 1.16903016727
H -2.28521475078 -1.21850117978 0.287288348434
H -3.49646781869 1.85079525455 1.28288546141
H -2.67610104205 -0.289879314286 -1.93478423289
H -1.03553687078 -0.860745010895 1.71555637318
H 1.67473083578 -0.743468642068 -0.717307229458
C 1.82988094824 1.32608969263 -0.53205058838
C 2.52395745637 0.599398207046 -0.943636750236
C 0.897149080393 1.72783089429 -2.49738560245
C 0.895237714166 -0.920853032081 -0.420895121861
C -2.30275352402 3.04770674537 -2.28827100596
C 1.07089859944 0.677522378549 1.73271167098
C -1.1851741002 2.67813209765 -0.423871839485
C -0.0173152574486 1.11364851682 0.0859831552379
C -0.104150597015 -0.178394749243 -1.99135578209
C -1.22559065244 -0.552975776765 -1.89714237677
