23
Optimised cartesian coordinates
H 10.2094553162 18.3459954129 11.3347385237
H 13.2140903256 16.6806441825 12.5433414422
H 13.0019611629 17.4916990484 9.26222114083
H 15.5702884869 12.4717219886 10.3194451099
H 14.9526573518 13.9733743551 13.1679897184
H 11.8161895127 13.85566279 12.8704551437
H 10.5915590775 14.388361531 11.8470936491
H 12.5666566258 13.120920064 9.50760474684
H 12.1780330648 11.3998421343 10.7281518579
H 12.3465061796 11.826808546 14.0834406565
H 13.9494066131 11.6491856092 15.3208988253
H 13.8662910645 9.73236144998 11.7963807929
H 13.4757230466 8.62082119103 13.7150928929
H 15.0770315508 9.89615600994 13.4719654963
C 11.5220123948 18.3257945628 11.3267528832
C 12.9570627495 15.8433160638 11.5675745006
C 12.8727865806 17.3828838496 10.5551687552
C 14.3110251913 12.6050155046 10.8460544349
C 14.5099706483 12.7977245337 12.7742751343
C 11.9153952771 14.2726283169 11.6212108726
C 12.4267813141 12.715607786 10.7104833255
C 13.6418932842 11.6238988482 13.9538047416
C 13.7427064449 9.82508914115 13.1743766626
