23
Optimised cartesian coordinates
H 8.43389786994 15.155387515 9.36347964999
H 10.9159876603 13.7796625855 10.3618907566
H 10.7407505259 14.4496644313 7.65140007286
H 12.8624122283 10.3027268602 8.52475900383
H 12.3521952037 11.5432222933 10.87790455
H 9.76120003225 11.4459823048 10.6321151187
H 8.74954880317 11.8860377865 9.78672953625
H 10.3811511257 10.8390209225 7.85410826913
H 10.0601142709 9.41726089358 8.86238631742
H 10.1992877136 9.76997227713 11.6341466293
H 11.5234228543 9.62324028582 12.6563946817
H 11.4547621837 8.03977684999 9.74483630714
H 11.1321190385 7.12154794042 11.3298593463
H 12.4549391072 8.17508539952 11.1290149752
C 9.51818415225 15.1386998563 9.35688281659
C 10.7036605322 13.0879567484 9.55582241353
C 10.6340410883 14.3597736149 8.71948723257
C 11.822151245 10.4128388951 8.95978409843
C 11.9864974921 10.5720333105 10.5526620674
C 9.84315262019 11.7904320879 9.60013072084
C 10.2656019551 10.5041977362 8.84779057323
C 11.2693901044 9.60235122239 11.5270560909
C 11.3526705415 8.11637798617 10.8831807213
