23
Optimised cartesian coordinates
H 9.3216765931 16.750691464 10.3491090868
H 12.0650389929 15.230153384 11.4526160994
H 11.8713558444 15.9706817399 8.45681060684
H 14.2163503576 11.3872244244 9.42210205687
H 13.6524262778 12.7582983242 12.0229471342
H 10.7886947725 12.6508225474 11.7512851312
H 9.67055394034 13.1371996587 10.8169115927
H 11.4739038758 11.9799704932 8.68085650798
H 11.1190736679 10.408551514 9.79526908768
H 11.2728969466 10.7983904116 12.8587936429
H 12.7364147337 10.6362129475 13.9886467535
H 12.6605266241 8.88606914998 10.77060855
H 12.3039210425 7.87118456572 12.5224761196
H 13.765985329 9.03562070473 12.3004902358
C 10.5200982735 16.7322472096 10.3418178499
C 11.8303616408 14.4656364061 10.5616984571
C 11.7534138345 15.8713287322 9.63732799389
C 13.0665882181 11.5089271999 9.90291926669
C 13.2482340702 11.6848789221 11.6634686008
C 10.8792739486 13.0315302024 10.6106707967
C 11.3461916346 11.6099027611 9.77913694936
C 12.4556416943 10.6131250353 12.7404304162
C 12.5476884932 8.97073356366 12.0287786919
