23
Optimised cartesian coordinates
H 8.87778723152 15.9530394895 9.85629436841
H 11.4905133266 14.5049079847 10.907253428
H 11.3060531852 15.2101730856 8.05410533985
H 13.539381293 10.8449756423 8.97343053035
H 13.0023107407 12.1507603088 11.4504258421
H 10.2749474024 12.0484024261 11.1917001249
H 9.21005137176 12.5116187226 10.3018205645
H 10.9275275007 11.4094957078 8.26748238856
H 10.5895939694 9.91290620377 9.32882770255
H 10.7360923301 10.2841813444 12.2464701361
H 12.129918794 10.1297266167 13.3225207176
H 12.0576444039 8.46292299998 10.2577224286
H 11.7180200405 7.49636625307 11.9261677329
H 13.1104622181 8.60535305212 11.7147526055
C 10.0191412129 15.9354735329 9.84935033326
C 11.2670110865 13.7767965773 10.0587604353
C 11.1937274614 15.1155511736 9.17840761323
C 12.4443697316 10.9608830475 9.43135168256
C 12.6173657811 11.1284561163 11.1080653341
C 10.3612132844 12.4109811451 10.1054007588
C 10.8058967948 11.0570502487 9.3134637613
C 11.8625158993 10.1077381288 12.1337432535
C 11.9501795173 8.54355577491 11.4559797066
