23
Optimised cartesian coordinates
H 8.91164561359 16.2115820121 10.2156493219
H 11.633666185 14.7375696938 11.1279666372
H 11.28196282 15.7053682414 8.32365508363
H 13.5748866794 11.2858220394 9.12541150061
H 13.1199852634 12.3306887221 11.7429162832
H 10.5946801216 12.176232734 11.2700536579
H 9.39612513561 12.894796799 10.2018040387
H 11.1765374729 11.7077478771 8.21754348234
H 10.7121052676 10.2525741012 9.1093205515
H 10.9970616974 10.306644553 12.3576531977
H 12.2704109404 10.290439127 13.6355798849
H 12.5271165599 8.78656830519 10.4007065134
H 12.2913078017 7.60149889542 11.9444984274
H 13.5514437212 8.95730404864 11.9364495458
C 10.0492875827 16.2490792445 10.223566215
C 11.3658826837 14.0886895089 10.2237723936
C 11.2835765073 15.5701500683 9.4613590501
C 12.6091785117 11.3588365179 9.70854930484
C 12.8027564193 11.3250051355 11.3428769953
C 10.5732289448 12.6792278591 10.2385809909
C 11.02472321 11.3785790693 9.37045416629
C 12.1703925694 10.2595327255 12.4044134606
C 12.4757711567 8.74801885663 11.5941481876
