23
Optimised cartesian coordinates
H 7.12931649087 12.9692656097 8.17251945752
H 9.30693294804 11.790055755 8.90237330977
H 9.02557025602 12.5642945931 6.6589240669
H 10.8599093435 9.02865763149 7.30032920049
H 10.4959882108 9.86455097771 9.39433302655
H 8.4757440973 9.74098618717 9.01604292634
H 7.51690010849 10.3158374392 8.16144323092
H 8.94122997833 9.36619830165 6.57403478587
H 8.56968421409 8.20205928092 7.2874564412
H 8.79764935791 8.24531564238 9.88612255817
H 9.81632875233 8.2323513016 10.908463908
H 10.021693248 7.02925464415 8.3205652107
H 9.83304624137 6.08119911633 9.55559874192
H 10.8411549769 7.16584323891 9.54915963661
C 8.03943006613 12.9992633956 8.17885297202
C 9.09270614693 11.2709516071 8.17901791488
C 9.02686120583 12.4561200546 7.56908724008
C 10.0873428094 9.08706921434 7.76683944387
C 10.2422051354 9.06000410839 9.07430159627
C 8.4585831558 10.1433822873 8.19086479275
C 8.81977856802 9.10286325543 7.49636333303
C 9.73631405555 8.2076261804 9.92353076849
C 9.98061692534 6.9984150853 9.27531855012
