23
Optimised cartesian coordinates
H 10.7064220538 10.58185794 6.79291116691
H 8.40831495788 9.87533739745 7.23219129899
H 9.95487045609 8.33356711266 6.16338707495
H 8.17618785881 6.39327743378 8.7255592697
H 7.53831658492 8.19744001418 7.38311057347
H 10.6260984051 9.22572434944 8.20656811884
H 9.67587250835 9.08174043771 8.99083138608
H 10.227996086 6.834963957 8.71755338489
H 9.93582821653 7.18283003385 7.44782813924
H 7.22067338322 7.98021738215 9.77446386325
H 7.39159343483 9.64766211951 9.20955394822
H 7.7848896466 9.27547242608 11.6259252528
H 8.86138745118 9.41331087265 10.7243547724
H 7.83039302182 10.269118266 10.627665626
C 10.5450969702 10.2992816532 5.94552080264
C 9.2692587645 9.58074396606 7.25071147825
C 9.91670457162 9.23742511449 6.2123765662
C 8.40432427994 7.25614016958 8.53950593037
C 7.64905195798 8.24012577451 8.29274043917
C 9.77925200977 8.77151863799 8.13485512635
C 9.68224832056 7.43772757595 8.28974872241
C 7.51298115447 8.78599755085 9.47882920167
C 7.88953519647 9.32076431225 10.6746622043
