Optimised cartesian coordinates
 OpenBabel07021512193D

 23 22  0  0  0  0  0  0  0  0999 V2000
   12.7139   12.5660    8.0666 H   0  0  0  0  0  0  0  0  0  0  0  0
    9.9849   11.7270    8.5882 H   0  0  0  0  0  0  0  0  0  0  0  0
   11.8214    9.8961    7.3190 H   0  0  0  0  0  0  0  0  0  0  0  0
    9.7092    7.5920   10.3616 H   0  0  0  0  0  0  0  0  0  0  0  0
    8.9518    9.7345    8.7674 H   0  0  0  0  0  0  0  0  0  0  0  0
   12.6185   10.9555    9.7453 H   0  0  0  0  0  0  0  0  0  0  0  0
   11.4901   10.7846   10.6766 H   0  0  0  0  0  0  0  0  0  0  0  0
   12.1457    8.1165   10.3521 H   0  0  0  0  0  0  0  0  0  0  0  0
   11.7988    8.5296    8.8443 H   0  0  0  0  0  0  0  0  0  0  0  0
    8.5745    9.4765   11.6072 H   0  0  0  0  0  0  0  0  0  0  0  0
    8.7775   11.4566   10.9363 H   0  0  0  0  0  0  0  0  0  0  0  0
    9.2446   11.0146   13.8058 H   0  0  0  0  0  0  0  0  0  0  0  0
   10.5229   11.1783   12.7352 H   0  0  0  0  0  0  0  0  0  0  0  0
    9.2986   12.1946   12.6204 H   0  0  0  0  0  0  0  0  0  0  0  0
   12.5223   12.2304    7.0603 C   0  0  0  0  0  0  0  0  0  0  0  0
   11.0072   11.3771    8.6102 C   0  0  0  0  0  0  0  0  0  0  0  0
   11.7761   10.9694    7.3772 C   0  0  0  0  0  0  0  0  0  0  0  0
    9.9801    8.6167   10.1407 C   0  0  0  0  0  0  0  0  0  0  0  0
    9.0832    9.7851    9.8476 C   0  0  0  0  0  0  0  0  0  0  0  0
   11.6129   10.4162    9.6601 C   0  0  0  0  0  0  0  0  0  0  0  0
   11.4977    8.8323    9.8441 C   0  0  0  0  0  0  0  0  0  0  0  0
    8.9217   10.4334   11.2561 C   0  0  0  0  0  0  0  0  0  0  0  0
    9.3688   11.0684   12.6762 C   0  0  0  0  0  0  0  0  0  0  0  0
  2 16  1  0  0  0  0
  3 17  1  0  0  0  0
  5 19  1  0  0  0  0
  9 21  1  0  0  0  0
 11 22  1  0  0  0  0
 14 23  1  0  0  0  0
 15 17  1  0  0  0  0
 15  1  1  0  0  0  0
 16 20  1  0  0  0  0
 17 16  1  0  0  0  0
 18  4  1  0  0  0  0
 19 18  1  0  0  0  0
 19 22  1  0  0  0  0
 20  6  1  0  0  0  0
 20 21  1  0  0  0  0
 20  7  1  0  0  0  0
 21 18  1  0  0  0  0
 21  8  1  0  0  0  0
 22 10  1  0  0  0  0
 22 23  1  0  0  0  0
 23 13  1  0  0  0  0
 23 12  1  0  0  0  0
M  RAD  5  15   3  16   2  17   2  18   2  19   2
M  END
