23
Optimised cartesian coordinates
H 14.721330324 14.5500546674 9.34025285451
H 11.5614330671 13.5785889215 9.94426303611
H 13.6879468771 11.4586547799 8.47465722806
H 11.2422583059 8.79075647145 11.9976439958
H 10.3651853043 11.2714800195 10.1517770385
H 14.610885307 12.6853709805 11.2840311634
H 13.304324699 12.4873931018 12.3623931559
H 14.0634946183 9.39807544088 11.9866359042
H 13.6617637977 9.87639129655 10.2407636915
H 9.92842590193 10.9727989005 13.439887812
H 10.1634409729 13.2655354143 12.6631366788
H 10.7042232641 12.7537745859 15.9856472226
H 12.1844077454 12.9433024499 14.7459878121
H 10.766790405 14.1200376158 14.6130402357
C 14.499508334 14.1615122731 8.17509110362
C 12.7452308012 13.1735229533 9.96972828259
C 13.635468786 12.7014595324 8.54201777853
C 11.5559458849 9.97719273318 11.7418206543
C 10.5174464422 11.33017294 11.4025181039
C 13.4464715134 12.0608381272 11.1854257987
C 13.3130914408 10.2268754169 11.3984044933
C 10.3303490874 12.0807466324 13.0333901523
C 10.8481108952 12.8160509293 14.6776605309
