23
Optimised cartesian coordinates
H 15.3904817023 15.2114207887 9.76480980244
H 12.0869527519 14.1957975088 10.3962749923
H 14.3101262806 11.9795027244 8.85986892024
H 11.753270047 9.19033631106 12.5429914502
H 10.8363300908 11.7838200204 10.6132214494
H 15.2750164573 13.2619787523 11.7969416708
H 13.9090667308 13.0550018792 12.9243201175
H 14.7027443737 9.82526068819 12.5314829908
H 14.2827530613 10.3253181737 10.7062529502
H 10.3797179884 11.4715624868 14.0507918034
H 10.6254155626 13.8685142968 13.2387338006
H 11.190778867 13.3334916125 16.7122675509
H 12.7382444611 13.5316343794 15.4162599854
H 11.2561899689 14.7618575074 15.2772693374
C 15.1585768946 14.8052173765 8.54668615379
C 13.324559474 13.7723194512 10.42289775
C 14.2552628217 13.2787986021 8.93029131392
C 12.0812161524 10.4307014938 12.2755397749
C 10.9955121896 11.8451808009 11.9208143813
C 14.057674764 12.6090580421 11.6938542441
C 13.9182319608 10.6917333904 11.9165137885
C 10.7999104096 12.6298714794 13.6258169774
C 11.3412068449 13.3985986989 15.3448269187
