23
Optimised cartesian coordinates
H 12.7138761889 12.5659563037 8.06658201071
H 9.98487401248 11.7269631595 8.58822716755
H 11.8214086666 9.89611094628 7.3190221515
H 9.70922308233 7.59201695261 10.3616016328
H 8.95175094459 9.73446001684 8.767443806
H 12.618491856 10.955547665 9.74529964113
H 11.4900986037 10.7845667698 10.676612271
H 12.1457453522 8.11651969894 10.3520946446
H 11.7987960071 8.5296106652 8.84429591534
H 8.57454964258 9.4765081413 11.6071758376
H 8.77751720386 11.4565987669 10.9363453135
H 9.24455645534 11.014623506 13.8057862377
H 10.5228975983 11.1783066613 12.7351712923
H 9.29859171341 12.1945779409 12.6203529309
C 12.5223026521 12.2303969632 7.06030595313
C 11.0072447828 11.3771334597 8.61021988042
C 11.7760866788 10.9694423235 7.37719717237
C 9.98013508243 8.61666645138 10.1406632923
C 9.0832492001 9.78514935724 9.84762927151
C 11.6128617616 10.4161783826 9.66014046254
C 11.4976698807 8.83230149644 9.84407660786
C 8.92166512094 10.4333720916 11.256109677
C 9.36882304581 11.0684076208 12.6761613676
