23
Optimised cartesian coordinates
H 11.8566316859 7.83716666836 11.7451153192
H 12.0391225729 8.6786320234 8.85142306142
H 11.378487078 10.5856343856 10.8663445126
H 7.75710113584 11.3788570468 10.6481845828
H 8.57268422349 11.2407792854 13.2812157986
H 11.3606447566 11.1152677842 7.48141019478
H 11.2894668542 11.8059163182 9.13917916124
H 9.37417113035 9.48932375332 9.10697982654
H 8.6730932161 10.9919482373 8.07210101724
H 11.2041233166 9.77303617108 13.1759309505
H 11.2666488767 12.0900431004 13.3124002752
H 13.0158770001 12.153882498 12.9244304977
H 13.1935849947 11.2100525587 11.4302049349
H 13.9247912666 10.7766909336 13.0411440465
C 10.8655600758 8.22667194353 11.3545718977
C 11.8045849456 9.78821634914 9.02020256192
C 11.433537852 9.46287599475 10.5647455888
C 8.95900736421 11.1749598125 10.7588553727
C 9.43345893337 11.1917238513 12.4354665636
C 10.8342203208 10.9639978908 8.56129056668
C 9.27611203448 10.7108371566 9.1082188711
C 11.1671606204 10.9562499204 12.9849853739
C 12.8580289302 11.0721186438 12.5860756535
