23
Optimised cartesian coordinates
H 9.48530534869 6.26973333469 9.39609225532
H 9.63129805831 6.94290561872 7.08113844914
H 9.10278966243 8.46850750844 8.6930756101
H 6.20568090867 9.10308563741 8.51854766625
H 6.85814737879 8.99262342833 10.6249726389
H 9.08851580529 8.89221422733 5.98512815582
H 9.03157348333 9.44473305453 7.31134332899
H 7.49933690428 7.59145900266 7.28558386123
H 6.93847457288 8.79355858983 6.4576808138
H 8.96329865327 7.81842893687 10.5407447604
H 9.01331910133 9.67203448035 10.6499202202
H 10.4127016001 9.72310599844 10.3395443981
H 10.5548679958 8.96804204695 9.14416394796
H 11.1398330133 8.6213527469 10.4329152372
C 8.69244806066 6.58133755483 9.08365751813
C 9.44366795645 7.83057307931 7.21616204953
C 9.14683028159 7.5703007958 8.45179647107
C 7.16720589137 8.93996785001 8.60708429814
C 7.5467671467 8.95337908105 9.94837325088
C 8.66737625666 8.77119831265 6.84903245335
C 7.42088962758 8.56866972527 7.28657509688
C 8.93372849634 8.76499993629 10.3879882991
C 10.2864231441 8.85769491504 10.0688605228
