23
Optimised cartesian coordinates
H 13.0422948545 8.62088333519 12.9196268511
H 13.2430348302 9.54649522574 9.73656536756
H 12.5163357858 11.6441978241 11.9529789639
H 8.53281124942 12.5167427514 11.7130030411
H 9.42995264584 12.364857214 14.6093373785
H 12.4967092323 12.2267945626 8.22955121426
H 12.4184135396 12.98650795 10.0530970774
H 10.3115882434 10.4382561287 10.0176778092
H 9.54040253771 12.091143061 8.87931111897
H 12.3245356483 10.7503397882 14.4935240455
H 12.3933137643 13.2990474105 14.6436403027
H 14.3174647001 13.3692707478 14.2168735474
H 14.5129434942 12.3310578146 12.5732254284
H 15.3172703933 11.854360027 14.3452584511
C 11.9521160834 9.04933913789 12.4900290874
C 12.9850434401 10.7670379841 9.92222281811
C 12.5768916372 10.4091635942 11.6212201477
C 9.85490810063 12.2924557938 11.8347409099
C 10.3768048267 12.3108962365 13.67901322
C 11.9176423529 12.0603976799 9.41741962335
C 10.2037232379 11.7819208722 10.0190407582
C 12.2838766825 12.0518749124 14.2834839113
C 14.1438318232 12.1793305082 13.8446832188
